Version 4.1
SHEET 1 2692 2164
WIRE -576 -368 -640 -368
WIRE -384 -368 -512 -368
WIRE -224 -368 -320 -368
WIRE -2288 -208 -2336 -208
WIRE -1744 -208 -2288 -208
WIRE -1424 -208 -1744 -208
WIRE -1200 -208 -1424 -208
WIRE -1008 -208 -1200 -208
WIRE -912 -208 -1008 -208
WIRE -784 -208 -832 -208
WIRE -432 -208 -784 -208
WIRE 272 -208 -432 -208
WIRE 432 -208 272 -208
WIRE 512 -208 432 -208
WIRE 608 -208 512 -208
WIRE 752 -208 608 -208
WIRE 128 -176 -352 -176
WIRE -352 -144 -352 -176
WIRE 208 -144 -304 -144
WIRE -640 -96 -640 -368
WIRE -352 -96 -640 -96
WIRE -224 -96 -288 -96
WIRE 272 -96 272 -208
WIRE -784 -80 -784 -208
WIRE -1008 -64 -1008 -208
WIRE -704 16 -704 -96
WIRE -640 16 -640 -96
WIRE -592 16 -640 16
WIRE -352 16 -512 16
WIRE -224 16 -224 -96
WIRE -224 16 -288 16
WIRE 432 16 432 -208
WIRE 512 16 512 -208
WIRE 608 16 608 -208
WIRE 752 48 752 -208
WIRE -1744 80 -1744 -208
WIRE -432 128 -432 -208
WIRE -784 144 -784 0
WIRE -784 144 -832 144
WIRE -704 144 -704 80
WIRE -704 144 -784 144
WIRE -640 144 -640 16
WIRE -640 144 -704 144
WIRE -464 144 -640 144
WIRE 752 144 752 128
WIRE -224 160 -224 16
WIRE -224 160 -400 160
WIRE -192 160 -224 160
WIRE -96 160 -192 160
WIRE -80 160 -96 160
WIRE 272 160 272 -16
WIRE 272 160 0 160
WIRE 352 160 272 160
WIRE 704 160 352 160
WIRE -1008 176 -1008 16
WIRE -880 176 -1008 176
WIRE -464 176 -880 176
WIRE -192 192 -192 160
WIRE -2336 224 -2336 -208
WIRE 752 272 752 240
WIRE 960 272 752 272
WIRE -192 304 -192 272
WIRE -192 304 -320 304
WIRE -192 320 -192 304
WIRE -320 336 -320 304
WIRE -1744 448 -1744 144
WIRE -1648 448 -1744 448
WIRE -576 448 -1648 448
WIRE -432 448 -432 192
WIRE -432 448 -576 448
WIRE -320 448 -320 400
WIRE -320 448 -432 448
WIRE -256 448 -320 448
WIRE -1744 464 -1744 448
WIRE 752 464 752 272
WIRE 432 480 432 80
WIRE 432 480 -32 480
WIRE 512 480 512 80
WIRE 512 480 432 480
WIRE 608 480 608 80
WIRE 608 480 512 480
WIRE 704 480 608 480
WIRE -1424 512 -1424 -208
WIRE -1744 560 -1744 544
WIRE -1200 560 -1200 -208
WIRE -832 560 -832 144
WIRE -576 592 -576 448
WIRE -32 592 -32 480
WIRE -32 592 -576 592
WIRE -2048 608 -2144 608
WIRE -2000 608 -2048 608
WIRE -1808 608 -1920 608
WIRE 640 608 528 608
WIRE 752 608 752 560
WIRE 752 608 640 608
WIRE 832 608 752 608
WIRE 992 608 912 608
WIRE 1136 608 992 608
WIRE 1264 608 1216 608
WIRE 1504 608 1264 608
WIRE 1680 608 1504 608
WIRE 2240 608 1760 608
WIRE 2240 640 2240 608
WIRE -2144 656 -2144 608
WIRE 992 656 992 608
WIRE 528 672 528 608
WIRE 640 672 640 608
WIRE -1200 688 -1200 640
WIRE -1424 736 -1424 592
WIRE -1264 736 -1424 736
WIRE -2336 768 -2336 304
WIRE -2144 768 -2144 736
WIRE -1744 768 -1744 656
WIRE 1264 768 1264 608
WIRE 1504 768 1504 608
WIRE -1424 784 -1424 736
WIRE -1424 784 -1616 784
WIRE -832 784 -832 640
WIRE -784 784 -832 784
WIRE 528 784 528 752
WIRE 640 784 640 752
WIRE 992 800 992 736
WIRE 992 800 928 800
WIRE -1424 832 -1424 784
WIRE -1328 832 -1424 832
WIRE -704 832 -720 832
WIRE -352 832 -704 832
WIRE -192 832 -192 496
WIRE -192 832 -352 832
WIRE 928 848 928 800
WIRE 992 864 992 800
WIRE -1200 880 -1200 784
WIRE -1088 880 -1200 880
WIRE -992 880 -1088 880
WIRE -784 880 -992 880
WIRE -192 880 -192 832
WIRE 2240 880 2240 720
WIRE -1328 896 -1328 832
WIRE -352 896 -352 832
WIRE 1504 896 1504 848
WIRE 2384 896 2288 896
WIRE 2480 896 2384 896
WIRE 2480 912 2480 896
WIRE -1616 928 -1616 784
WIRE -1424 928 -1424 832
WIRE -992 928 -992 880
WIRE -1088 944 -1088 880
WIRE 528 944 528 864
WIRE 640 944 640 864
WIRE 992 1008 992 944
WIRE 1120 1008 992 1008
WIRE 1264 1008 1264 848
WIRE 1264 1008 1200 1008
WIRE 1504 1008 1504 960
WIRE 1504 1008 1264 1008
WIRE 1616 1008 1504 1008
WIRE 1792 1008 1696 1008
WIRE 2240 1008 2240 960
WIRE 2288 1008 2288 944
WIRE 2480 1008 2480 992
WIRE -352 1040 -352 976
WIRE -2048 1056 -2048 608
WIRE -2048 1056 -2368 1056
WIRE -1616 1056 -1616 992
WIRE -1424 1056 -1424 992
WIRE -1328 1056 -1328 976
WIRE -1088 1056 -1088 1008
WIRE -992 1056 -992 1008
WIRE -192 1056 -192 944
WIRE 528 1056 528 1008
WIRE 640 1056 640 1008
WIRE -96 1072 -96 160
WIRE 272 1072 -96 1072
WIRE 128 1200 128 -176
WIRE 128 1200 -544 1200
WIRE 208 1248 208 -144
WIRE 208 1248 -480 1248
WIRE -64 1344 -64 1280
WIRE 32 1360 -32 1360
WIRE -544 1376 -544 1200
WIRE -544 1376 -608 1376
WIRE -384 1376 -544 1376
WIRE -352 1376 -384 1376
WIRE -256 1376 -272 1376
WIRE -96 1376 -256 1376
WIRE -16 1392 -32 1392
WIRE 48 1392 -16 1392
WIRE 192 1392 128 1392
WIRE 32 1456 32 1360
WIRE 192 1456 192 1392
WIRE -880 1472 -880 176
WIRE -880 1472 -1488 1472
WIRE -384 1472 -384 1376
WIRE 272 1472 272 1072
WIRE 272 1472 240 1472
WIRE -1488 1488 -1488 1472
WIRE -256 1488 -256 1376
WIRE -240 1488 -256 1488
WIRE -16 1488 -16 1392
WIRE -16 1488 -160 1488
WIRE -1792 1504 -1792 1168
WIRE -1824 1520 -1952 1520
WIRE -1552 1536 -1760 1536
WIRE -1824 1552 -2128 1552
WIRE -2128 1616 -2128 1552
WIRE -1952 1616 -1952 1520
WIRE -1488 1616 -1488 1584
WIRE -1488 1616 -1952 1616
WIRE -1488 1648 -1488 1616
WIRE -480 1648 -480 1248
WIRE -480 1648 -608 1648
WIRE -384 1648 -384 1536
WIRE -384 1648 -480 1648
WIRE -64 1648 -64 1408
WIRE -64 1648 -384 1648
WIRE 32 1648 32 1536
WIRE 32 1648 -64 1648
WIRE 192 1648 192 1536
WIRE 192 1648 32 1648
WIRE 240 1648 240 1520
WIRE 240 1648 192 1648
WIRE -2128 1776 -2128 1696
WIRE -1792 1776 -1792 1568
WIRE -1488 1776 -1488 1728
WIRE -704 1792 -704 832
WIRE -704 1968 -704 1872
WIRE -2368 2016 -2368 1056
WIRE -768 2016 -2368 2016
WIRE -704 2144 -704 2064
FLAG 352 160 GATE_DRIVE
FLAG -2336 768 0
FLAG -2288 -208 VBUS
FLAG 640 1056 0
FLAG 2240 1008 0
FLAG 2480 1008 0
FLAG 2288 1008 0
FLAG 2384 896 LOAD_CMD
FLAG 928 848 0
FLAG 960 272 OUT
FLAG -1648 448 VBUS-10V
FLAG -1744 768 0
FLAG -2144 768 0
FLAG -192 1056 0
FLAG -352 1040 0
FLAG -1424 1056 0
FLAG -992 1056 0
FLAG -1088 1056 0
FLAG -1616 1056 0
FLAG -1328 1056 0
FLAG 528 1056 0
FLAG 1792 1008 0
FLAG -1488 1776 0
FLAG -1792 1776 0
FLAG -1792 1168 VBUS
FLAG -2128 1776 0
FLAG -608 1648 VBUS-10V
FLAG -64 1280 VBUS
FLAG -608 1376 ANTI_WINDUP_CTL
FLAG -704 2144 0
DATAFLAG 832 272 ""
DATAFLAG 144 160 ""
DATAFLAG -1712 -208 ""
DATAFLAG -1712 -208 ""
DATAFLAG 1024 608 ""
DATAFLAG 1024 608 ""
SYMBOL res 16 144 R90
WINDOW 0 0 56 VBottom 2
WINDOW 3 32 56 VTop 2
SYMATTR InstName R3
SYMATTR Value 10
SYMBOL res -928 -192 R270
WINDOW 0 32 56 VTop 2
WINDOW 3 0 56 VBottom 2
SYMATTR InstName RSNS
SYMATTR Value 10m
SYMBOL voltage -2336 208 M0
SYMATTR InstName VBUS
SYMATTR Value {Vbus}
SYMBOL cap 624 944 R0
SYMATTR InstName C2
SYMATTR Value 0.1µ
SYMBOL sw 2240 976 R180
SYMATTR InstName S1
SYMBOL voltage 2480 896 M0
WINDOW 123 0 0 Left 0
WINDOW 39 0 0 Left 0
SYMATTR InstName VLOAD_CMD
SYMATTR Value PULSE(0 5 5 10u 10u 1 10)
SYMBOL res 816 624 R270
WINDOW 0 32 56 VTop 2
WINDOW 3 0 56 VBottom 2
SYMATTR InstName ROUT
SYMATTR Value 10µ
SYMBOL res 256 -112 R0
SYMATTR InstName R20
SYMATTR Value 10k
SYMBOL pmos 704 240 M180
SYMATTR InstName M3
SYMATTR Value SQJ469EP
SYMBOL res 976 640 R0
SYMATTR InstName RCONVERGE
SYMATTR Value 100G
SYMBOL ind 1488 752 R0
SYMATTR InstName Lcable5
SYMATTR Value {Lcable}
SYMBOL cap 1488 896 R0
SYMATTR InstName C3
SYMATTR Value {Cload}
SYMBOL res 2224 624 R0
SYMATTR InstName R18
SYMATTR Value 100m
SYMBOL res -800 -96 R0
SYMATTR InstName R2
SYMATTR Value 200
SYMBOL cap -288 0 R90
WINDOW 0 0 32 VBottom 2
WINDOW 3 32 32 VTop 2
SYMATTR InstName C1
SYMATTR Value 200p
SYMBOL zener -1728 144 R180
WINDOW 0 24 64 Left 2
WINDOW 3 24 0 Left 2
SYMATTR InstName D3
SYMATTR Value BZX84C10L
SYMBOL res -1760 448 R0
SYMATTR InstName R8
SYMATTR Value 100
SYMBOL npn -1808 560 R0
SYMATTR InstName Q3
SYMATTR Value 2N2222
SYMBOL voltage -2144 640 M0
WINDOW 123 0 0 Left 0
WINDOW 39 0 0 Left 0
SYMATTR InstName V1
SYMATTR Value PULSE(0 5 1 1u 1u 100)
SYMBOL res -1904 592 R90
WINDOW 0 0 56 VBottom 2
WINDOW 3 32 56 VTop 2
SYMATTR InstName R13
SYMATTR Value 1k
SYMBOL pnp -256 496 M180
SYMATTR InstName Q4
SYMATTR Value 2N2907
SYMBOL cap -208 880 R0
SYMATTR InstName C6
SYMATTR Value 22µ
SYMBOL npn -720 784 M0
SYMATTR InstName Q5
SYMATTR Value 2N2222
SYMBOL npn -1264 688 R0
SYMATTR InstName Q6
SYMATTR Value 2N2222
SYMBOL res -1008 912 R0
SYMATTR InstName R16
SYMATTR Value 10k
SYMBOL zener -1072 1008 R180
WINDOW 0 24 64 Left 2
WINDOW 3 24 0 Left 2
SYMATTR InstName D5
SYMATTR Value 1N750
SYMBOL zener -1408 992 R180
WINDOW 0 24 64 Left 2
WINDOW 3 24 0 Left 2
SYMATTR InstName D6
SYMATTR Value 1N750
SYMBOL res -1216 544 R0
SYMATTR InstName R27
SYMATTR Value 10k
SYMBOL res -368 880 R0
SYMATTR InstName R30
SYMATTR Value 100k
SYMBOL cap -1632 928 R0
SYMATTR InstName C7
SYMATTR Value 0.1µ
SYMBOL res -1344 880 R0
SYMATTR InstName R26
SYMATTR Value 100k
SYMBOL res -176 176 M0
SYMATTR InstName R14
SYMATTR Value 1k
SYMBOL res -208 304 R0
SYMATTR InstName R1
SYMATTR Value 2k
SYMBOL res -1440 496 R0
SYMATTR InstName R19
SYMATTR Value 1k
SYMBOL References\\LT1389-2.5 -320 368 M0
SYMATTR InstName U2
SYMBOL res -848 544 R0
SYMATTR InstName R4
SYMATTR Value 10k
SYMBOL ind 624 768 R0
SYMATTR InstName L1
SYMATTR Value 50n
SYMBOL res 624 656 R0
SYMATTR InstName R5
SYMATTR Value 3
SYMBOL cap 544 944 M0
SYMATTR InstName C5
SYMATTR Value 22µ
SYMBOL ind 544 768 M0
SYMATTR InstName L2
SYMATTR Value 50n
SYMBOL res 544 656 M0
SYMATTR InstName R9
SYMATTR Value 1
SYMBOL res 1248 752 R0
SYMATTR InstName R10
SYMATTR Value 3k
SYMBOL OpAmps\\UniversalOpAmp5 -432 160 R0
SYMATTR InstName U1
SYMATTR Value2 Avol=1Meg GBW=1G Phimargin=60 SlewPos=1G SlewNeg=1G
SYMATTR SpiceLine2 Vos=0 Ibp=2n Ibn=1n Iq=1m Rail=2 Ilimit=90m
SYMBOL res 976 848 R0
SYMATTR InstName RCONVERGE1
SYMATTR Value 100G
SYMBOL cap 496 16 R0
SYMATTR InstName C8
SYMATTR Value 0.01µ
SYMBOL cap 416 16 R0
SYMATTR InstName C9
SYMATTR Value 22µ
SYMBOL cap 592 16 R0
SYMATTR InstName C10
SYMATTR Value 100p
SYMBOL res -496 0 R90
WINDOW 0 0 56 VBottom 2
WINDOW 3 32 56 VTop 2
SYMATTR InstName R11
SYMATTR Value 200
SYMBOL res -992 -80 M0
SYMATTR InstName R6
SYMATTR Value 1.8k
SYMBOL npn -1552 1488 R0
SYMATTR InstName Q1
SYMATTR Value 2N2222
SYMBOL OpAmps\\UniversalOpAmp5 -1792 1536 R0
SYMATTR InstName U3
SYMATTR Value2 Avol=1Meg GBW=180Meg Phimargin=60 SlewPos=225Meg SlewNeg=225Meg
SYMATTR SpiceLine2 Vos=0 Ibp=2n Ibn=1n Iq=1m Rail=50m Ilimit=30m
SYMBOL res -1504 1632 R0
SYMATTR InstName R12
SYMATTR Value 25k
SYMBOL voltage -2128 1600 M0
WINDOW 123 0 0 Left 0
WINDOW 39 0 0 Left 0
SYMATTR InstName V2
SYMATTR Value 2.5
SYMBOL e 192 1440 M0
SYMATTR InstName E1
SYMATTR Value 1.0
SYMBOL Comparators\\LTC6752 -64 1312 M0
SYMATTR InstName U4
SYMBOL voltage 32 1440 R0
WINDOW 123 0 0 Left 0
WINDOW 39 0 0 Left 0
SYMATTR InstName V3
SYMATTR Value 1
SYMBOL res 144 1376 R90
WINDOW 0 0 56 VBottom 2
WINDOW 3 32 56 VTop 2
SYMATTR InstName R15
SYMATTR Value 50
SYMBOL res -144 1472 R90
WINDOW 0 0 56 VBottom 2
WINDOW 3 32 56 VTop 2
SYMATTR InstName R17
SYMATTR Value 1Meg
SYMBOL res -256 1360 R90
WINDOW 0 0 56 VBottom 2
WINDOW 3 32 56 VTop 2
SYMATTR InstName R21
SYMATTR Value 49.9
SYMBOL cap -400 1472 R0
SYMATTR InstName C4
SYMATTR Value 0.01µ
SYMBOL cap -288 -112 R90
WINDOW 0 0 32 VBottom 2
WINDOW 3 32 32 VTop 2
SYMATTR InstName C12
SYMATTR Value 120p
SYMBOL cap -720 16 R0
SYMATTR InstName C13
SYMATTR Value 220p
SYMBOL res -720 -192 R0
SYMATTR InstName R22
SYMATTR Value 200
SYMBOL res 736 32 R0
SYMATTR InstName R23
SYMATTR Value 10m
SYMBOL diode -512 -384 R90
WINDOW 0 0 32 VBottom 2
WINDOW 3 32 32 VTop 2
SYMATTR InstName D1
SYMATTR Value PDZV8_2B
SYMBOL diode -384 -352 R270
WINDOW 0 36 32 VTop 2
WINDOW 3 -4 32 VBottom 2
SYMATTR InstName D2
SYMATTR Value PDZV8_2B
SYMBOL res -720 1776 R0
SYMATTR InstName R25
SYMATTR Value 10
SYMBOL npn -768 1968 R0
SYMATTR InstName Q2
SYMATTR Value 2N2222
SYMBOL ind 1664 624 R270
WINDOW 0 32 56 VTop 2
WINDOW 3 5 56 VBottom 2
SYMATTR InstName Lcable1
SYMATTR Value {Lcable}
SYMBOL ind 1120 624 R270
WINDOW 0 32 56 VTop 2
WINDOW 3 5 56 VBottom 2
SYMATTR InstName Lcable2
SYMATTR Value {Lcable}
SYMBOL ind 1104 1024 R270
WINDOW 0 32 56 VTop 2
WINDOW 3 5 56 VBottom 2
SYMATTR InstName Lcable3
SYMATTR Value {Lcable}
SYMBOL ind 1600 1024 R270
WINDOW 0 32 56 VTop 2
WINDOW 3 5 56 VBottom 2
SYMATTR InstName Lcable4
SYMATTR Value {Lcable}
SYMBOL pmos 704 560 M180
SYMATTR InstName M1
SYMATTR Value SQJ469EP
TEXT -2568 480 Right 2 !.param RSNS=20m\n.param RSEL = 18\n.param RGAIN = 200\n.param RIN_INTEG = 10k
TEXT -2576 -56 Right 2 !.model SW SW(Ron=10u, Roff=10G, Vt=0.5, Vh=-0.4)
TEXT -2576 24 Right 2 !.tran 0 10 0
TEXT -2568 432 Right 2 ;.ac dec 1k 100 10Meg
TEXT -2568 624 Right 2 !.param Gfs = 4\n.param Cgs = 6000p\n.param Cgd = 10p
TEXT -2576 208 Right 2 !.opt noopiter
TEXT -2576 184 Right 2 !.opt abstol=1E-4 reltol=1E-4
TEXT -2608 1136 Right 2 !.step param Cload list 50u 220u 1m\n.step param Lcable list 100n 1u 10u 100u 500u 1m
TEXT -2600 984 Right 2 ;.step temp list -55 25 155
TEXT -2608 1048 Right 2 ;.param Cload=10u\n.param Lcable = 1p
TEXT -2600 944 Right 2 !.param Vbus 30
