Version 4
SHEET 1 3208 680
WIRE 1344 -128 1248 -128
WIRE 1456 -128 1344 -128
WIRE 1856 -128 1456 -128
WIRE 2032 -128 1856 -128
WIRE 2144 -128 2112 -128
WIRE 2192 -128 2144 -128
WIRE 2288 -128 2256 -128
WIRE 2400 -128 2288 -128
WIRE 2544 -128 2400 -128
WIRE 2704 -128 2544 -128
WIRE 3120 -128 2704 -128
WIRE 1344 -112 1344 -128
WIRE 3120 -112 3120 -128
WIRE 2400 -96 2400 -128
WIRE 1856 -80 1856 -128
WIRE 2544 -80 2544 -128
WIRE 2704 -80 2704 -128
WIRE 1248 -16 1248 -128
WIRE 1344 -16 1344 -48
WIRE 1456 -16 1456 -128
WIRE 1696 -16 1456 -16
WIRE 2032 -16 2016 -16
WIRE 3120 -16 3120 -32
WIRE 2144 0 2144 -128
WIRE 2400 32 2400 -16
WIRE 2544 32 2544 0
WIRE 2704 32 2704 0
WIRE 1600 80 1568 80
WIRE 2096 80 2016 80
WIRE 2144 112 2144 96
WIRE 2144 112 2080 112
WIRE 2144 128 2144 112
WIRE 2400 128 2400 96
WIRE 2544 128 2544 96
WIRE 2704 128 2704 96
WIRE 2288 144 2288 -128
WIRE 1600 176 1568 176
WIRE 1696 176 1680 176
WIRE 2080 176 2080 112
WIRE 2080 176 2016 176
WIRE 2144 224 2144 208
WIRE 1248 240 1248 64
WIRE 1520 272 1504 272
WIRE 1600 272 1584 272
WIRE 1696 272 1680 272
WIRE 2288 272 2288 224
WIRE 2288 272 2016 272
WIRE 2288 288 2288 272
WIRE 1856 352 1856 336
WIRE 2288 384 2288 368
FLAG 1568 176 0
FLAG 2288 384 0
FLAG 1856 352 0
FLAG 2400 128 0
FLAG 1504 272 0
FLAG 3120 -16 0
FLAG 1568 80 0
FLAG 2096 -16 0
FLAG 3120 -128 OUT
FLAG 2144 224 0
FLAG 1344 -16 0
FLAG 1248 240 0
FLAG 2544 128 0
FLAG 2704 128 0
SYMBOL NMOS 2096 0 R0
SYMATTR InstName Q1
SYMATTR Value FDS6680A
SYMBOL RES 1696 192 M270
WINDOW 0 32 56 VTop 2
WINDOW 3 0 56 VBottom 2
SYMATTR InstName R1
SYMATTR Value 140k
SYMBOL res 2272 272 R0
SYMATTR InstName R2
SYMATTR Value 100k
SYMBOL res 2272 128 R0
SYMATTR InstName R3
SYMATTR Value 4Meg
SYMBOL ind 2016 -112 R270
WINDOW 0 32 56 VTop 2
WINDOW 3 5 56 VBottom 2
SYMATTR InstName L1
SYMATTR Value 150µ
SYMBOL schottky 2192 -112 R270
WINDOW 0 32 32 VTop 2
WINDOW 3 0 32 VBottom 2
SYMATTR InstName D1
SYMATTR Value MBR735
SYMBOL res 1696 288 M270
WINDOW 0 32 56 VTop 2
WINDOW 3 0 56 VBottom 2
SYMATTR InstName R4
SYMATTR Value 22K
SYMBOL cap 1584 288 M270
WINDOW 0 32 32 VTop 2
WINDOW 3 0 32 VBottom 2
SYMATTR InstName C2
SYMATTR Value 6800p
SYMBOL polcap 2032 -32 M90
WINDOW 0 0 32 VBottom 2
WINDOW 3 32 32 VTop 2
SYMATTR InstName C3
SYMATTR Value 4.7µ
SYMBOL cap 1664 64 R90
WINDOW 0 0 32 VBottom 2
WINDOW 3 32 32 VTop 2
SYMATTR InstName C4
SYMATTR Value .01µ
SYMBOL res 3104 -128 R0
SYMATTR InstName Rload
SYMATTR Value 1k
SYMBOL res 2128 112 R0
SYMATTR InstName R7
SYMATTR Value .01
SYMBOL PowerProducts\\LT3757A 1856 128 R0
SYMATTR InstName U1
SYMBOL cap 1328 -112 R0
SYMATTR InstName C7
SYMATTR Value 4.7µ
SYMATTR SpiceLine Rser=10m
SYMBOL voltage 1248 -32 M0
WINDOW 123 0 0 Left 0
WINDOW 39 0 0 Left 0
SYMATTR InstName V1
SYMATTR Value 5.2
SYMBOL cap 2384 32 R0
SYMATTR InstName C1
SYMATTR Value 47µ
SYMBOL res 2384 -112 R0
SYMATTR InstName R5
SYMATTR Value 1
SYMBOL cap 2528 32 R0
SYMATTR InstName C5
SYMATTR Value 10µF
SYMBOL res 2528 -96 R0
SYMATTR InstName R6
SYMATTR Value 1m
SYMBOL cap 2688 32 R0
SYMATTR InstName C6
SYMATTR Value 0.1µF
SYMBOL res 2688 -96 R0
SYMATTR InstName R8
SYMATTR Value 10m
TEXT 2400 368 Left 2 !.tran 100m startup
