Version 4
SHEET 1 1112 732
WIRE -192 -336 -512 -336
WIRE 304 -336 -192 -336
WIRE 144 -288 32 -288
WIRE 304 -288 304 -336
WIRE 304 -288 144 -288
WIRE 464 -288 304 -288
WIRE 672 -288 464 -288
WIRE 944 -288 672 -288
WIRE 144 -256 144 -288
WIRE 464 -256 464 -288
WIRE 944 -128 944 -288
WIRE 32 -112 32 -288
WIRE 144 -112 144 -176
WIRE 464 -112 464 -176
WIRE 672 -112 672 -288
WIRE -192 -48 -192 -336
WIRE 32 16 32 -48
WIRE 144 16 144 -32
WIRE 144 16 32 16
WIRE 464 16 464 -32
WIRE 672 16 672 -48
WIRE 672 16 464 16
WIRE 944 16 944 -48
WIRE 944 16 672 16
WIRE 144 32 144 16
WIRE 272 32 144 32
WIRE 464 32 464 16
WIRE 464 32 336 32
WIRE -512 64 -512 -336
WIRE 144 64 144 32
WIRE 784 64 144 64
WIRE 464 80 464 32
WIRE 576 80 464 80
WIRE 144 112 144 64
WIRE 464 112 464 80
WIRE 272 160 336 32
WIRE 272 160 208 160
WIRE 336 160 272 32
WIRE 400 160 336 160
WIRE 976 224 832 224
WIRE -192 272 -192 32
WIRE -80 272 -192 272
WIRE 832 272 832 224
WIRE 144 288 144 208
WIRE 304 288 144 288
WIRE 464 288 464 208
WIRE 464 288 304 288
WIRE 784 288 784 64
WIRE -192 336 -192 272
WIRE 304 336 304 288
WIRE -80 384 -80 272
WIRE -80 384 -128 384
WIRE 240 384 -80 384
WIRE 576 384 576 80
WIRE 784 384 784 336
WIRE 784 384 576 384
WIRE 832 384 832 352
WIRE -512 496 -512 144
WIRE -192 496 -192 432
WIRE 304 496 304 432
FLAG 304 496 0
FLAG -192 496 0
FLAG -512 496 0
FLAG 832 384 0
FLAG 976 224 OUT_DIFF
SYMBOL ind 128 -128 R0
SYMATTR InstName L1
SYMATTR Value 12n
SYMBOL current -192 -48 R0
WINDOW 123 0 0 Left 0
WINDOW 39 0 0 Left 0
SYMATTR InstName I1
SYMATTR Value 5m
SYMBOL voltage -512 48 R0
WINDOW 123 0 0 Left 0
WINDOW 39 0 0 Left 0
SYMATTR InstName V1
SYMATTR Value 3
SYMBOL ind 448 -128 R0
SYMATTR InstName L2
SYMATTR Value 12n
SYMBOL cap 16 -112 R0
SYMATTR InstName C1
SYMATTR Value 250fF
SYMBOL cap 688 -112 M0
SYMATTR InstName C2
SYMATTR Value 250fF
SYMBOL current 944 -128 R0
WINDOW 0 -32 40 VBottom 2
WINDOW 3 32 40 VTop 2
WINDOW 123 0 0 Left 0
WINDOW 39 0 0 Left 0
SYMATTR InstName I2
SYMATTR Value PULSE(0 100m 10n 10p 10p 1n)
SYMBOL e 832 256 R0
SYMATTR InstName E1
SYMATTR Value 1.0
SYMBOL Infineon_RF_NPN_3Pin 208 112 M0
SYMATTR InstName U1
SYMATTR Value BFU590Q
SYMBOL Infineon_RF_NPN_3Pin 400 112 R0
SYMATTR InstName U2
SYMATTR Value BFU590Q
SYMBOL Infineon_RF_NPN_3Pin 240 336 R0
SYMATTR InstName U3
SYMATTR Value BFU590Q
SYMBOL Infineon_RF_NPN_3Pin -128 336 M0
SYMATTR InstName U4
SYMATTR Value BFU590Q
SYMBOL res 128 -272 R0
SYMATTR InstName R1
SYMATTR Value 2m
SYMBOL res 448 -272 R0
SYMATTR InstName R2
SYMATTR Value 2m
TEXT -546 520 Left 2 !.tran 0 100n 0 100f
TEXT -560 648 Left 2 !.lib C:\\Users\\Vien\\Documents\\LTspice_Projects\\ADF4371_Phase_Noise_Sims\\BFU590Q.LIB
