Version 4
SHEET 1 1592 1876
WIRE -320 -368 -768 -368
WIRE -80 -368 -240 -368
WIRE -80 -192 -80 -368
WIRE -16 -192 -80 -192
WIRE -400 -176 -432 -176
WIRE -432 -128 -432 -176
WIRE -48 -16 -48 -64
WIRE -432 0 -432 -48
WIRE -1120 128 -1488 128
WIRE -1040 128 -1120 128
WIRE -992 128 -1040 128
WIRE -288 128 -432 128
WIRE -48 128 -240 128
WIRE 96 128 -48 128
WIRE 864 128 704 128
WIRE 896 128 864 128
WIRE -1120 160 -1120 128
WIRE -432 176 -432 128
WIRE -1488 192 -1488 128
WIRE -240 192 -240 128
WIRE -48 192 -48 128
WIRE 704 192 704 128
WIRE -1600 208 -1952 208
WIRE -1536 208 -1600 208
WIRE -288 208 -288 128
WIRE -992 224 -992 128
WIRE -1600 256 -1712 256
WIRE -1536 256 -1600 256
WIRE -1120 272 -1120 240
WIRE -1488 336 -1488 272
WIRE -432 336 -432 256
WIRE -288 336 -288 256
WIRE -240 336 -240 272
WIRE -48 336 -48 256
WIRE 704 336 704 272
WIRE -1120 368 -1120 336
WIRE -992 368 -992 288
WIRE -1712 528 -1712 256
WIRE -976 528 -1712 528
WIRE 864 528 864 128
WIRE 864 528 -928 528
WIRE -976 560 -976 528
WIRE -928 576 -928 528
WIRE -976 672 -976 640
WIRE -928 672 -928 624
WIRE -1984 848 -2080 848
WIRE -1712 848 -1792 848
WIRE -1376 848 -1472 848
WIRE -1104 848 -1184 848
WIRE -1792 928 -1792 848
WIRE -1184 928 -1184 848
WIRE -1984 944 -1984 848
WIRE -1376 944 -1376 848
WIRE -1984 1088 -1984 1008
WIRE -1792 1088 -1792 1008
WIRE -1376 1088 -1376 1008
WIRE -1184 1088 -1184 1008
FLAG -992 368 0
FLAG -1488 336 0
FLAG -48 336 0
FLAG -240 336 0
FLAG -288 336 0
FLAG 896 128 Phi_OUT
FLAG -928 672 0
FLAG -976 672 0
FLAG -1600 256 Phi_FB
FLAG -1600 208 Phi_IN
FLAG -1120 368 0
FLAG -1040 128 VFILT
FLAG -1984 1088 0
FLAG -2080 848 Phi_In
FLAG -1792 1088 0
FLAG -1712 848 Freq_In
FLAG -1376 1088 0
FLAG -1472 848 Phi_Out
FLAG -1184 1088 0
FLAG -1104 848 Freq_Out
FLAG 96 128 Phi_Out_VCO
FLAG -48 -16 0
FLAG -16 -192 Phi_Noise_VCO
FLAG 704 336 0
FLAG -432 336 0
FLAG -432 0 0
FLAG -400 -176 VINJ_VCO
SYMBOL g -1488 176 R0
SYMATTR InstName G_PFD_CP
SYMATTR Value {Icp/(2*PI)}
SYMBOL cap -1008 224 R0
SYMATTR InstName Cp2
SYMATTR Value {Cparallel}
SYMBOL cap -64 192 R0
SYMATTR InstName C_VCO
SYMATTR Value 1.0
SYMBOL g -240 176 R0
SYMATTR InstName G_VCO
SYMATTR Value {2*PI*Kvco}
SYMBOL e -976 544 M0
SYMATTR InstName E_DIV
SYMATTR Value {1/N}
SYMBOL cap -1136 272 R0
SYMATTR InstName Cp1
SYMATTR Value {Cint}
SYMBOL res -1136 144 R0
SYMATTR InstName Rz
SYMATTR Value {Rzero}
SYMBOL cap -2000 944 R0
SYMATTR InstName Cdiff_In
SYMATTR Value 1.0
SYMBOL bv -1792 912 R0
SYMATTR InstName B1
SYMATTR Value V={I(Cdiff_In)}
SYMBOL cap -1392 944 R0
SYMATTR InstName Cdiff_Out
SYMATTR Value 1.0
SYMBOL bv -1184 912 R0
SYMATTR InstName B2
SYMATTR Value V={I(Cdiff_Out)}
SYMBOL voltage -48 -160 M0
WINDOW 123 24 124 Left 2
WINDOW 39 0 0 Left 2
SYMATTR Value2 AC 0
SYMATTR InstName V2
SYMATTR Value 0
SYMBOL bv 704 176 M0
SYMATTR InstName B3
SYMATTR Value V={V(Phi_Out_VCO)+V(Phi_Noise_VCO)}
SYMBOL bv -432 160 M0
SYMATTR InstName B4
SYMATTR Value V={V(VFILT)+V(VINJ_VCO)}
SYMBOL voltage -432 -144 M0
WINDOW 123 24 124 Left 2
WINDOW 39 0 0 Left 2
SYMATTR Value2 AC 0
SYMATTR InstName V3
SYMATTR Value 0
SYMBOL CVSS_945_XL_10_Phase_Noise_Model -1120 -368 R0
SYMATTR InstName X1
SYMBOL 536L10001IT5_Phase_Noise_Model -2304 208 R0
SYMATTR InstName X2
SYMBOL res -224 -384 R90
WINDOW 0 0 56 VBottom 2
WINDOW 3 32 56 VTop 2
SYMATTR InstName R1
SYMATTR Value 1µ
TEXT -1744 576 Left 2 !.param Icp=50.0u\n.param Kvco=250\n.param N=1.0
TEXT -2048 480 Left 2 !.ac dec 1k 1 10Meg
TEXT -2048 456 Left 2 !;tran 0 10m 0
TEXT -2048 1208 Left 5 ;Frequency Step:\nInput and Output Frequencies vs. Time
TEXT -1112 424 Left 4 ;Loop Filter
TEXT -1672 408 Left 4 ;Phase-Frequency Detector\nand Charge Pump
TEXT -312 408 Left 4 ;Voltage-Controlled\nOscillator
TEXT -1048 744 Left 4 ;Divider
TEXT -1456 568 Left 2 !.param Cint = 1uF\n.param Rzero = 15k\n.param Cparallel = 0.1uF
TEXT -1744 696 Left 2 !.param Cdiff_In=1\n.param Cdiff_Out=1
RECTANGLE Normal -1328 384 -1664 80 2
RECTANGLE Normal -848 400 -1152 80 2
RECTANGLE Normal 64 384 -352 64 2
RECTANGLE Normal -832 720 -1136 480 2
