Version 4
SHEET 1 1252 1224
WIRE -144 -432 -144 -512
WIRE 16 -432 16 -512
WIRE -144 -272 -144 -352
WIRE 16 -272 16 -352
WIRE -80 0 -240 0
WIRE 96 0 -80 0
WIRE 192 0 96 0
WIRE 256 0 192 0
WIRE 448 0 336 0
WIRE 720 0 448 0
WIRE 96 32 96 0
WIRE -240 96 -240 0
WIRE 192 96 192 0
WIRE -80 112 -80 0
WIRE 448 112 448 0
WIRE 96 160 96 112
WIRE -240 272 -240 176
WIRE -80 272 -80 192
WIRE 96 272 96 224
WIRE 192 272 192 160
WIRE 448 272 448 176
WIRE 96 528 64 528
WIRE 208 528 176 528
WIRE 256 528 208 528
WIRE 384 528 336 528
WIRE -176 544 -352 544
WIRE 64 576 64 528
WIRE 288 656 288 624
WIRE -272 672 -272 640
WIRE 208 672 208 528
WIRE 272 672 208 672
WIRE -352 688 -352 544
WIRE -288 688 -352 688
WIRE 384 688 384 528
WIRE 384 688 336 688
WIRE 480 688 384 688
WIRE 672 688 560 688
WIRE 944 688 672 688
WIRE -176 704 -176 544
WIRE -176 704 -224 704
WIRE -112 704 -176 704
WIRE 64 704 -32 704
WIRE 272 704 64 704
WIRE -832 720 -976 720
WIRE -736 720 -832 720
WIRE -576 720 -736 720
WIRE -288 720 -576 720
WIRE -832 752 -832 720
WIRE 288 752 288 720
WIRE -272 768 -272 736
WIRE 64 800 64 704
WIRE 672 800 672 688
WIRE -976 816 -976 720
WIRE -736 816 -736 720
WIRE -576 832 -576 720
WIRE -832 880 -832 832
WIRE 64 928 64 880
WIRE 672 960 672 864
WIRE -976 992 -976 896
WIRE -832 992 -832 944
WIRE -736 992 -736 880
WIRE -576 992 -576 912
WIRE 64 1024 64 1008
FLAG 448 272 0
FLAG -240 272 0
FLAG 96 272 0
FLAG 192 272 0
FLAG 720 0 VTUNE_PASSIVE
FLAG 672 960 0
FLAG -976 992 0
FLAG -832 992 0
FLAG -736 992 0
FLAG 944 688 VTUNE_ACTIVE
FLAG -144 -272 0
FLAG -144 -512 VCC
FLAG 16 -272 0
FLAG 16 -512 VEE
FLAG -272 768 VEE
FLAG -272 640 VCC
FLAG 288 752 VEE
FLAG 288 624 VCC
FLAG 64 1024 0
FLAG 64 576 0
FLAG -576 992 0
FLAG -80 272 0
SYMBOL current -240 176 R180
WINDOW 0 24 80 Left 2
WINDOW 3 24 0 Left 2
WINDOW 123 24 -28 Left 2
WINDOW 39 0 0 Left 0
SYMATTR InstName I1
SYMATTR Value 0
SYMATTR Value2 AC 1
SYMBOL res 80 16 R0
SYMATTR InstName R1
SYMATTR Value 62
SYMBOL cap 80 160 R0
SYMATTR InstName C1
SYMATTR Value 0.1µ
SYMBOL cap 176 96 R0
SYMATTR InstName C2
SYMATTR Value 1000p
SYMBOL res 352 -16 R90
WINDOW 0 0 56 VBottom 2
WINDOW 3 32 56 VTop 2
SYMATTR InstName R2
SYMATTR Value 25
SYMBOL cap 432 112 R0
SYMATTR InstName C3
SYMATTR Value 1500p
SYMBOL current -976 896 R180
WINDOW 0 24 80 Left 2
WINDOW 3 24 0 Left 2
WINDOW 123 24 -28 Left 2
WINDOW 39 0 0 Left 0
SYMATTR InstName I2
SYMATTR Value 0
SYMATTR Value2 AC 1
SYMBOL res -848 736 R0
SYMATTR InstName R3
SYMATTR Value 62
SYMBOL cap -848 880 R0
SYMATTR InstName C4
SYMATTR Value 0.1µ
SYMBOL cap -752 816 R0
SYMATTR InstName C5
SYMATTR Value 1000p
SYMBOL res 576 672 R90
WINDOW 0 0 56 VBottom 2
WINDOW 3 32 56 VTop 2
SYMATTR InstName R4
SYMATTR Value 25
SYMBOL cap 656 800 R0
SYMATTR InstName C6
SYMATTR Value 1500p
SYMBOL Opamps\\ADA4807 -256 704 R0
SYMATTR InstName U1
SYMBOL voltage -144 -448 R0
WINDOW 123 0 0 Left 0
WINDOW 39 0 0 Left 0
SYMATTR InstName V1
SYMATTR Value 3.3
SYMBOL voltage 16 -448 R0
WINDOW 123 0 0 Left 0
WINDOW 39 0 0 Left 0
SYMATTR InstName V2
SYMATTR Value -3.3
SYMBOL Opamps\\ADA4807 304 688 R0
SYMATTR InstName U2
SYMBOL res 352 512 R90
WINDOW 0 0 56 VBottom 2
WINDOW 3 32 56 VTop 2
SYMATTR InstName R5
SYMATTR Value 1k
SYMBOL res 80 896 R180
WINDOW 0 36 76 Left 2
WINDOW 3 36 40 Left 2
SYMATTR InstName R6
SYMATTR Value 1k
SYMBOL res 80 1024 R180
WINDOW 0 36 76 Left 2
WINDOW 3 36 40 Left 2
SYMATTR InstName R7
SYMATTR Value 50
SYMBOL res -16 688 R90
WINDOW 0 0 56 VBottom 2
WINDOW 3 32 56 VTop 2
SYMATTR InstName R8
SYMATTR Value 1k
SYMBOL res 192 512 R90
WINDOW 0 0 56 VBottom 2
WINDOW 3 32 56 VTop 2
SYMATTR InstName R9
SYMATTR Value 1k
SYMBOL res -592 816 R0
SYMATTR InstName R10
SYMATTR Value 1Meg
SYMBOL res -96 96 R0
SYMATTR InstName R11
SYMATTR Value 1Meg
TEXT -984 1096 Left 2 !,lib opamp.sub
TEXT -1008 1160 Left 2 !.ac dec 1k 10 100Meg
