Version 4
SHEET 1 1492 700
WIRE 176 -1488 176 -1504
WIRE 288 -1488 288 -1504
WIRE 176 -1392 176 -1408
WIRE 288 -1392 288 -1408
WIRE 1056 -1248 928 -1248
WIRE 640 -1232 512 -1232
WIRE 832 -1216 832 -1248
WIRE 976 -1152 976 -1168
WIRE 560 -1136 560 -1152
WIRE 928 -1136 928 -1248
WIRE 960 -1136 928 -1136
WIRE 512 -1120 512 -1232
WIRE 544 -1120 512 -1120
WIRE 1056 -1120 1056 -1248
WIRE 1056 -1120 1024 -1120
WIRE 1264 -1120 1056 -1120
WIRE 640 -1104 640 -1232
WIRE 640 -1104 608 -1104
WIRE 736 -1104 640 -1104
WIRE 832 -1104 832 -1136
WIRE 832 -1104 816 -1104
WIRE 960 -1104 832 -1104
WIRE 544 -1088 432 -1088
WIRE 432 -1072 432 -1088
WIRE 976 -1072 976 -1088
WIRE 560 -1056 560 -1072
WIRE 432 -976 432 -992
FLAG 176 -1504 +V
FLAG 176 -1392 0
FLAG 432 -976 0
FLAG 1264 -1120 OUT
FLAG 432 -1088 IN
FLAG 560 -1152 +V
FLAG 288 -1504 -V
FLAG 288 -1392 0
FLAG 560 -1056 -V
FLAG 976 -1168 +V
FLAG 976 -1072 -V
FLAG 832 -1248 +V
SYMBOL voltage 176 -1504 R0
WINDOW 123 0 0 Left 0
WINDOW 39 0 0 Left 0
SYMATTR InstName V1
SYMATTR Value 3.3
SYMBOL voltage 432 -1088 R0
WINDOW 123 24 146 Left 2
WINDOW 39 24 125 Left 2
SYMATTR InstName V2
SYMATTR Value SINE(0 3.2 10Meg)
SYMBOL voltage 288 -1504 R0
WINDOW 123 0 0 Left 0
WINDOW 39 0 0 Left 0
SYMATTR InstName V3
SYMATTR Value -3.4
SYMBOL ADA4807 576 -1104 R0
SYMATTR InstName U1
SYMBOL ADA4807 992 -1120 R0
SYMATTR InstName U2
SYMBOL res 832 -1120 R90
WINDOW 0 0 56 VBottom 2
WINDOW 3 32 56 VTop 2
SYMATTR InstName R1
SYMATTR Value 10k
SYMBOL res 816 -1232 R0
SYMATTR InstName R2
SYMATTR Value 10k
TEXT 728 -976 Left 2 !.tran 5u
