Version 4
SHEET 1 3208 680
WIRE 768 -336 688 -336
WIRE 912 -336 848 -336
WIRE 1200 -336 912 -336
WIRE 912 -288 912 -336
WIRE 688 -208 688 -336
WIRE 864 -208 688 -208
WIRE 592 -144 400 -144
WIRE 688 -144 688 -208
WIRE 688 -144 592 -144
WIRE 752 -144 688 -144
WIRE 1200 -128 1200 -336
WIRE 1248 -128 1200 -128
WIRE 1344 -128 1312 -128
WIRE 1456 -128 1344 -128
WIRE 1568 -128 1456 -128
WIRE 1728 -128 1568 -128
WIRE 1568 -112 1568 -128
WIRE 1344 -96 1344 -128
WIRE 752 -80 752 -144
WIRE 912 -80 912 -192
WIRE 1456 -80 1456 -128
WIRE 400 -16 400 -144
WIRE 1568 -16 1568 -48
WIRE 592 32 592 -144
WIRE 672 32 592 32
WIRE 1344 32 1344 -16
WIRE 1344 32 992 32
WIRE 1456 32 1456 -16
WIRE 1456 32 1344 32
WIRE 1344 48 1344 32
WIRE 1344 144 1344 128
WIRE 752 160 752 144
WIRE 912 160 912 144
WIRE 400 240 400 64
WIRE 752 240 752 224
FLAG 752 240 0
FLAG 912 160 0
FLAG 1344 144 0
FLAG 1568 -16 0
FLAG 400 240 0
SYMBOL PowerProducts\\LT8330 832 32 R0
SYMATTR InstName U3
SYMBOL cap 736 160 R0
SYMATTR InstName C5
SYMATTR Value 1µ
SYMBOL ind 752 -320 R270
WINDOW 0 32 56 VTop 2
WINDOW 3 5 56 VBottom 2
SYMATTR InstName L2
SYMATTR Value 10µH
SYMATTR SpiceLine Rser=.1
SYMBOL res 1328 -112 R0
SYMATTR InstName R5
SYMATTR Value 1Meg
SYMBOL res 1328 32 R0
SYMATTR InstName R6
SYMATTR Value 24k
SYMBOL cap 1440 -80 R0
SYMATTR InstName C6
SYMATTR Value 4.7p
SYMBOL cap 1552 -112 R0
SYMATTR InstName C7
SYMATTR Value 4.7µ
SYMATTR SpiceLine Rser=10m
SYMBOL schottky 1248 -112 R270
WINDOW 0 32 32 VTop 2
WINDOW 3 0 32 VBottom 2
SYMATTR InstName D2
SYMATTR Value BAT46WJ
SYMATTR Description Diode
SYMATTR Type diode
SYMBOL voltage 400 -32 M0
WINDOW 123 0 0 Left 0
WINDOW 39 0 0 Left 0
SYMATTR InstName V1
SYMATTR Value 5
SYMBOL nmos 864 -288 R0
SYMATTR InstName M1
SYMATTR Value BSC440N10NS3
TEXT 2400 368 Left 2 !.tran 100m startup
