Version 4
SHEET 1 880 680
WIRE 192 -1072 192 -1152
WIRE 192 -880 192 -992
WIRE 192 -512 192 -592
WIRE 192 -352 192 -432
WIRE -640 -272 -1072 -272
WIRE 144 -272 -592 -272
WIRE -592 -208 -592 -272
WIRE -640 -192 -640 -272
WIRE -1072 -176 -1072 -272
WIRE -640 -64 -640 -144
WIRE -592 -64 -592 -128
WIRE 192 -64 192 -256
WIRE 192 -64 -592 -64
WIRE 480 -64 192 -64
WIRE 640 -64 480 -64
WIRE 704 -64 640 -64
WIRE -1072 -32 -1072 -96
WIRE 480 160 480 -64
WIRE 640 160 640 -64
WIRE 480 480 480 240
WIRE 640 480 640 224
FLAG 192 -592 VD
FLAG 192 -1152 VD
FLAG 192 -880 0
FLAG 704 -64 DRAIN_OUT
FLAG 480 480 0
FLAG 640 480 0
FLAG -1072 -32 0
FLAG -640 -64 0
SYMBOL nmos 144 -352 R0
SYMATTR InstName M1
SYMATTR Value AONS66521
SYMBOL voltage 192 -1088 R0
WINDOW 123 0 0 Left 0
WINDOW 39 0 0 Left 0
SYMATTR InstName V1
SYMATTR Value 150
SYMBOL res 176 -528 R0
SYMATTR InstName R1
SYMATTR Value 10m
SYMBOL res 464 144 R0
SYMATTR InstName R2
SYMATTR Value 100k
SYMBOL cap 624 160 R0
SYMATTR InstName C1
SYMATTR Value 100p
SYMBOL voltage -1072 -192 R0
WINDOW 123 0 0 Left 0
WINDOW 39 0 0 Left 0
SYMATTR InstName V2
SYMATTR Value PULSE(0 3.3 10m 10u 10u 1 2)
SYMBOL e -592 -224 R0
SYMATTR InstName E1
SYMATTR Value 3.0
TEXT -1082 64 Left 2 !.tran 0 3 0
