Version 4
SHEET 1 996 680
WIRE -64 -288 -144 -288
WIRE 32 -288 -64 -288
WIRE -144 -272 -144 -288
WIRE -144 -176 -144 -192
WIRE -64 -144 -64 -288
WIRE 32 -144 -64 -144
WIRE 608 -144 576 -144
WIRE 768 -144 608 -144
WIRE 864 -144 768 -144
WIRE 768 -80 768 -144
WIRE 608 -64 608 -144
WIRE 608 -64 576 -64
WIRE 864 -64 864 -144
WIRE 144 16 144 0
WIRE 272 32 272 16
WIRE 496 32 496 16
WIRE 144 48 144 16
WIRE 144 48 64 48
WIRE 64 80 64 48
WIRE 144 80 144 48
WIRE 768 80 768 -16
WIRE 864 80 864 16
WIRE 368 128 368 16
WIRE 64 176 64 144
WIRE 144 176 144 160
FLAG 272 32 0
FLAG -144 -176 0
FLAG -144 -288 IN
FLAG 368 128 0
FLAG 144 176 0
FLAG 768 80 0
FLAG 864 80 0
FLAG 864 -144 OUT
FLAG 64 176 0
SYMBOL voltage -144 -288 R0
SYMATTR InstName V1
SYMATTR Value 5
SYMBOL cap 752 -80 R0
SYMATTR InstName C2
SYMATTR Value 10µF
SYMATTR SpiceLine Rser=3m
SYMBOL res 848 -80 R0
SYMATTR InstName Rload
SYMATTR Value 50
SYMBOL LT3045 272 -144 R0
SYMATTR InstName U1
SYMBOL res 128 64 R0
SYMATTR InstName R5
SYMATTR Value 33k
SYMBOL cap 48 80 R0
SYMATTR InstName C1
SYMATTR Value 10µF
TEXT -160 -448 Left 2 !.noise V(OUT) V1 dec 1k 10 1Meg
