Version 4
SHEET 1 5332 2548
WIRE 560 -624 464 -624
WIRE 736 -624 640 -624
WIRE 784 -624 736 -624
WIRE 464 -576 464 -624
WIRE 736 -544 736 -624
WIRE 464 -416 464 -496
WIRE 736 -416 736 -480
WIRE 576 -304 464 -304
WIRE 736 -304 656 -304
WIRE 768 -304 736 -304
WIRE -176 -256 -176 -304
WIRE 736 -208 736 -304
WIRE 464 -176 464 -304
WIRE -176 -112 -176 -176
WIRE 464 -16 464 -96
WIRE 736 -16 736 -144
WIRE -624 16 -656 16
WIRE -656 80 -656 16
WIRE -496 80 -656 80
WIRE 384 80 -416 80
WIRE 1696 160 1696 -64
WIRE -656 240 -656 80
WIRE -656 480 -656 320
WIRE 1696 688 1696 240
WIRE 1696 688 1376 688
WIRE 1856 688 1696 688
WIRE 2336 688 1856 688
WIRE 816 848 816 784
WIRE 384 896 384 80
WIRE 720 896 384 896
WIRE 1120 912 912 912
WIRE 1072 1008 912 1008
WIRE 384 1024 384 896
WIRE 720 1024 384 1024
WIRE 1376 1056 1376 688
WIRE 1856 1056 1856 688
WIRE 2336 1056 2336 688
WIRE 1008 1104 912 1104
WIRE 1120 1104 1120 912
WIRE 1200 1104 1120 1104
WIRE 1312 1104 1280 1104
WIRE 1680 1104 1600 1104
WIRE 1792 1104 1760 1104
WIRE 2160 1104 2112 1104
WIRE 2272 1104 2240 1104
WIRE 384 1120 384 1024
WIRE 720 1120 384 1120
WIRE 752 1184 752 1168
WIRE 816 1184 816 1168
WIRE 880 1232 880 1168
WIRE 1376 1296 1376 1152
WIRE 1488 1296 1376 1296
WIRE 1856 1296 1856 1152
WIRE 1968 1296 1856 1296
WIRE 2336 1296 2336 1152
WIRE 2448 1296 2336 1296
WIRE 1488 1392 1488 1296
WIRE 1968 1392 1968 1296
WIRE 2448 1392 2448 1296
WIRE 1376 1456 1376 1296
WIRE 1856 1456 1856 1296
WIRE 2336 1456 2336 1296
WIRE 1488 1488 1488 1456
WIRE 1968 1488 1968 1456
WIRE 2448 1488 2448 1456
WIRE 1376 1600 1376 1536
WIRE 1488 1600 1488 1568
WIRE 1856 1600 1856 1536
WIRE 1968 1600 1968 1568
WIRE 2336 1600 2336 1536
WIRE 2448 1600 2448 1568
WIRE 1072 1680 1072 1008
WIRE 1600 1680 1600 1104
WIRE 1600 1680 1072 1680
WIRE 1008 1888 1008 1104
WIRE 2112 1888 2112 1104
WIRE 2112 1888 1008 1888
FLAG -176 -304 VTEST
FLAG -176 -112 0
FLAG -656 480 0
FLAG -624 16 VIN
FLAG 1376 1600 0
FLAG 1488 1600 0
FLAG 1696 -64 VTEST
FLAG 816 1184 0
FLAG 784 -624 VCC
FLAG 768 -304 VEE
FLAG 464 -16 0
FLAG 816 784 VCC
FLAG 752 1184 0
FLAG 1856 1600 0
FLAG 1968 1600 0
FLAG 2336 1600 0
FLAG 2448 1600 0
FLAG 880 1232 VEE
FLAG 736 -16 0
FLAG 464 -416 0
FLAG 736 -416 0
SYMBOL voltage -176 -272 M0
WINDOW 123 0 0 Left 0
WINDOW 39 0 0 Left 0
SYMATTR InstName V1
SYMATTR Value 3.3
SYMBOL voltage -656 224 M0
WINDOW 123 24 124 Left 2
WINDOW 39 0 0 Left 0
SYMATTR Value2 AC 1
SYMATTR InstName VIN
SYMATTR Value PULSE(0 2 1u 100p 100p 125n 250n)
SYMBOL Infineon_RF_NPN_3Pin 1312 1056 R0
SYMATTR InstName U1
SYMATTR Value BFU590Q
SYMBOL res 1360 1440 R0
SYMATTR InstName R1
SYMATTR Value 10.0
SYMBOL cap 1472 1392 R0
SYMATTR InstName C1
SYMATTR Value 6.8pF
SYMBOL res 1472 1472 R0
SYMATTR InstName R4
SYMATTR Value 1
SYMBOL res 1296 1088 R90
WINDOW 0 0 56 VBottom 2
WINDOW 3 32 56 VTop 2
SYMATTR InstName R2
SYMATTR Value 200
SYMBOL Opamps\\LT6554 816 928 R0
SYMATTR InstName U2
SYMBOL voltage 464 -592 M0
WINDOW 123 0 0 Left 0
WINDOW 39 0 0 Left 0
SYMATTR InstName V3
SYMATTR Value 5
SYMBOL voltage 464 -192 M0
WINDOW 123 0 0 Left 0
WINDOW 39 0 0 Left 0
SYMATTR InstName V4
SYMATTR Value -5
SYMBOL Infineon_RF_NPN_3Pin 1792 1056 R0
SYMATTR InstName U3
SYMATTR Value BFU590Q
SYMBOL res 1840 1440 R0
SYMATTR InstName R3
SYMATTR Value 10.0
SYMBOL cap 1952 1392 R0
SYMATTR InstName C2
SYMATTR Value 6.8pF
SYMBOL res 1952 1472 R0
SYMATTR InstName R5
SYMATTR Value 1
SYMBOL res 1776 1088 R90
WINDOW 0 0 56 VBottom 2
WINDOW 3 32 56 VTop 2
SYMATTR InstName R6
SYMATTR Value 200
SYMBOL Infineon_RF_NPN_3Pin 2272 1056 R0
SYMATTR InstName U4
SYMATTR Value BFU590Q
SYMBOL res 2320 1440 R0
SYMATTR InstName R7
SYMATTR Value 10.0
SYMBOL cap 2432 1392 R0
SYMATTR InstName C3
SYMATTR Value 6.8pF
SYMBOL res 2432 1472 R0
SYMATTR InstName R8
SYMATTR Value 1
SYMBOL res 2256 1088 R90
WINDOW 0 0 56 VBottom 2
WINDOW 3 32 56 VTop 2
SYMATTR InstName R9
SYMATTR Value 200
SYMBOL res 1680 144 R0
SYMATTR InstName R10
SYMATTR Value 10m
SYMBOL res -400 64 R90
WINDOW 0 0 56 VBottom 2
WINDOW 3 32 56 VTop 2
SYMATTR InstName R12
SYMATTR Value 50
SYMBOL cap 720 -208 R0
SYMATTR InstName C4
SYMATTR Value 10µF
SYMBOL cap 720 -544 R0
SYMATTR InstName C5
SYMATTR Value 10µF
SYMBOL ind 544 -608 R270
WINDOW 0 32 56 VTop 2
WINDOW 3 5 56 VBottom 2
SYMATTR InstName L1
SYMATTR Value 10µ
SYMBOL ind 560 -288 R270
WINDOW 0 32 56 VTop 2
WINDOW 3 5 56 VBottom 2
SYMATTR InstName L2
SYMATTR Value 10µ
TEXT -664 544 Left 2 !.tran 0 10u 0
TEXT -736 728 Left 2 !;ac dec 1k 1 10G
TEXT -720 776 Left 2 !.lib BFU590Q.lib
TEXT -728 840 Left 2 !;dc VIN 0 3.3 1m
