Version 4
SHEET 1 1636 936
WIRE -912 -256 -912 -272
WIRE -800 -256 -800 -272
WIRE -912 -160 -912 -176
WIRE -800 -160 -800 -176
WIRE -416 -112 -752 -112
WIRE -752 -16 -752 -112
WIRE -448 -16 -752 -16
WIRE -368 -16 -448 -16
WIRE -448 16 -448 -16
WIRE -368 16 -368 -16
WIRE -752 80 -752 -16
WIRE -448 112 -448 96
WIRE -368 112 -368 96
WIRE -448 208 -448 192
WIRE -368 208 -368 192
WIRE 64 256 16 256
WIRE 224 256 144 256
WIRE -752 272 -752 160
WIRE -448 304 -448 288
WIRE -368 304 -368 288
WIRE -448 400 -448 384
WIRE -400 400 -448 400
WIRE -368 400 -368 384
WIRE -368 400 -400 400
WIRE 96 416 96 400
WIRE 16 432 16 256
WIRE 80 432 16 432
WIRE 224 448 224 256
WIRE 224 448 144 448
WIRE 352 448 224 448
WIRE -400 464 -400 400
WIRE 80 464 -400 464
WIRE 96 496 96 480
WIRE -400 544 -400 464
WIRE -400 688 -400 624
FLAG -400 688 0
FLAG -752 272 0
FLAG 96 400 VCC
FLAG 96 496 VEE
FLAG -912 -160 0
FLAG -912 -272 VCC
FLAG -800 -160 0
FLAG -800 -272 VEE
FLAG 352 448 OUT
FLAG -416 -112 VIN_TRANSIENT
SYMBOL res -384 112 M180
WINDOW 0 36 76 Left 2
WINDOW 3 36 40 Left 2
SYMATTR InstName R1
SYMATTR Value 500.0Meg
SYMBOL res -384 400 M180
WINDOW 0 36 76 Left 2
WINDOW 3 36 40 Left 2
SYMATTR InstName R2
SYMATTR Value 500.0Meg
SYMBOL res -416 528 R0
SYMATTR InstName R3
SYMATTR Value 10k
SYMBOL res -432 112 R180
WINDOW 0 36 76 Left 2
WINDOW 3 36 40 Left 2
SYMATTR InstName R4
SYMATTR Value 500.0Meg
SYMBOL res -432 400 R180
WINDOW 0 36 76 Left 2
WINDOW 3 36 40 Left 2
SYMATTR InstName R5
SYMATTR Value 500.0Meg
SYMBOL voltage -752 64 M0
WINDOW 123 0 0 Left 0
WINDOW 39 0 0 Left 0
SYMATTR InstName V1
SYMATTR Value EXP(0 100k 10n 10n 50n 50n)
SYMBOL voltage -912 -272 R0
WINDOW 123 0 0 Left 0
WINDOW 39 0 0 Left 0
SYMATTR InstName V2
SYMATTR Value 5
SYMBOL voltage -800 -272 R0
WINDOW 123 0 0 Left 0
WINDOW 39 0 0 Left 0
SYMATTR InstName V3
SYMATTR Value -5
SYMBOL res -384 208 M180
WINDOW 0 36 76 Left 2
WINDOW 3 36 40 Left 2
SYMATTR InstName R6
SYMATTR Value 500.0Meg
SYMBOL res -432 208 R180
WINDOW 0 36 76 Left 2
WINDOW 3 36 40 Left 2
SYMATTR InstName R7
SYMATTR Value 500.0Meg
SYMBOL res -384 304 M180
WINDOW 0 36 76 Left 2
WINDOW 3 36 40 Left 2
SYMATTR InstName R8
SYMATTR Value 500.0Meg
SYMBOL res -432 304 R180
WINDOW 0 36 76 Left 2
WINDOW 3 36 40 Left 2
SYMATTR InstName R9
SYMATTR Value 500.0Meg
SYMBOL res 160 240 R90
WINDOW 0 0 56 VBottom 2
WINDOW 3 32 56 VTop 2
SYMATTR InstName R10
SYMATTR Value 1
SYMBOL Opamps\\ADA4807-1 112 448 R0
SYMATTR InstName U1
TEXT -978 -104 Left 2 !.tran 0 500n 0
TEXT -616 448 Left 2 ;High-Voltage,\nHigh-Power\nResistors
TEXT -552 744 Left 2 ;100k:1 Resistive Divider
TEXT -1016 344 Left 2 ;100kV Test Source
RECTANGLE Normal -192 416 -624 -48 2
RECTANGLE Normal -144 720 -656 -64 2
RECTANGLE Normal -704 320 -1136 -48 2
