Version 4
SHEET 1 5332 2548
WIRE 496 -528 496 -576
WIRE 816 -432 816 -544
WIRE 1120 -432 1120 -544
WIRE 496 -384 496 -448
WIRE 976 -384 880 -384
WIRE 1056 -384 976 -384
WIRE 816 -288 816 -336
WIRE 976 -288 976 -384
WIRE 976 -288 816 -288
WIRE 816 -224 816 -288
WIRE 1120 -96 1120 -336
WIRE 1248 -96 1120 -96
WIRE 1488 -96 1312 -96
WIRE 816 -80 816 -144
WIRE 992 -64 928 -64
WIRE 1120 -64 1120 -96
WIRE 1120 -64 1072 -64
WIRE 1120 32 1120 -64
WIRE 720 80 560 80
WIRE 816 80 720 80
WIRE 928 80 928 -64
WIRE 928 80 880 80
WIRE 1056 80 928 80
WIRE 1488 96 1488 -96
WIRE 560 144 560 80
WIRE 720 144 720 80
WIRE 1120 144 1120 128
WIRE 1184 144 1120 144
WIRE 1120 160 1120 144
WIRE 560 304 560 224
WIRE 720 304 720 224
WIRE 1120 304 1120 240
WIRE 1488 304 1488 176
FLAG 496 -576 VCC
FLAG 496 -384 0
FLAG 1120 304 0
FLAG 560 304 0
FLAG 1120 -544 VCC
FLAG 720 304 0
FLAG 1488 304 0
FLAG 816 -80 0
FLAG 816 -544 VCC
DATAFLAG 1136 -96 ""
DATAFLAG 944 80 ""
DATAFLAG 944 80 ""
DATAFLAG 1184 144 ""
SYMBOL voltage 496 -544 M0
WINDOW 123 0 0 Left 0
WINDOW 39 0 0 Left 0
SYMATTR InstName V1
SYMATTR Value 5
SYMBOL Infineon_RF_NPN_3Pin 1056 32 R0
SYMATTR InstName U4
SYMATTR Value BFU590Q
SYMBOL res 1104 144 R0
SYMATTR InstName R2
SYMATTR Value 10
SYMBOL res 1088 -80 R90
WINDOW 0 0 56 VBottom 2
WINDOW 3 32 56 VTop 2
SYMATTR InstName R3
SYMATTR Value 13k
SYMBOL cap 880 64 R90
WINDOW 0 0 32 VBottom 2
WINDOW 3 32 32 VTop 2
SYMATTR InstName C1
SYMATTR Value 0.1µF
SYMBOL current 560 224 R180
WINDOW 0 24 80 Left 2
WINDOW 3 24 0 Left 2
WINDOW 123 24 -28 Left 2
WINDOW 39 0 0 Left 0
SYMATTR InstName I1
SYMATTR Value SINE(0 10u 10Meg)
SYMATTR Value2 AC 1
SYMBOL res 704 128 R0
SYMATTR InstName R4
SYMATTR Value 20k
SYMBOL res 1472 80 R0
SYMATTR InstName R5
SYMATTR Value 50
SYMBOL cap 1312 -112 R90
WINDOW 0 0 32 VBottom 2
WINDOW 3 32 32 VTop 2
SYMATTR InstName C2
SYMATTR Value 0.1µF
SYMBOL pnp 1056 -336 M180
SYMATTR InstName Q1
SYMBOL pnp 880 -336 R180
SYMATTR InstName Q2
SYMBOL current 816 -224 R0
WINDOW 123 0 0 Left 0
WINDOW 39 0 0 Left 0
SYMATTR InstName I2
SYMATTR Value 10m
TEXT -656 -936 Left 2 !.lib OPA698.lib
TEXT -648 -864 Left 2 !.lib BUF602.lib
TEXT -656 -960 Left 2 !.lib HMC799.lib
TEXT -640 -824 Left 2 !.ac dec 1k 1k 10G
TEXT -648 -992 Left 2 !.lib BFU590Q.LIB
TEXT -658 328 Left 2 !;tran 0 10u 0
