Version 4
SHEET 1 1344 1016
WIRE -464 144 -512 144
WIRE -352 144 -464 144
WIRE -176 144 -288 144
WIRE 112 144 80 144
WIRE 256 144 192 144
WIRE 544 144 256 144
WIRE 656 144 544 144
WIRE 752 144 656 144
WIRE 1056 144 832 144
WIRE 1264 144 1056 144
WIRE 256 208 256 144
WIRE -512 320 -512 144
WIRE 544 320 544 144
WIRE -48 352 -48 240
WIRE 256 352 256 288
WIRE 256 352 -48 352
WIRE 1056 384 1056 144
WIRE 656 416 656 144
WIRE 544 496 544 400
WIRE 608 496 544 496
WIRE 544 512 544 496
WIRE 256 528 256 352
WIRE 416 576 320 576
WIRE -512 592 -512 400
WIRE 544 608 544 576
WIRE 1056 688 1056 464
WIRE 256 704 256 624
WIRE 656 704 656 512
WIRE 784 704 656 704
WIRE 544 736 544 672
WIRE 656 736 656 704
WIRE 256 864 256 784
WIRE 544 864 544 816
WIRE 656 864 656 816
WIRE 416 944 416 576
WIRE 784 944 784 704
WIRE 784 944 416 944
FLAG -512 592 0
FLAG 1264 144 VOUT
FLAG -464 144 VIN
FLAG 656 864 0
FLAG 1056 688 0
FLAG 544 864 0
FLAG 256 864 0
SYMBOL LED -352 160 R270
WINDOW 0 72 32 VTop 2
WINDOW 3 0 32 VBottom 2
SYMATTR InstName D1
SYMBOL voltage -512 304 M0
WINDOW 123 0 0 Left 0
WINDOW 39 0 0 Left 0
SYMATTR InstName VIN
SYMATTR Value 35
SYMBOL res 96 160 R270
WINDOW 0 32 56 VTop 2
WINDOW 3 0 56 VBottom 2
SYMATTR InstName R1
SYMATTR Value 0.4
SYMBOL res 240 192 R0
SYMATTR InstName R2
SYMATTR Value 1k
SYMBOL nmos 608 416 R0
SYMATTR InstName M1
SYMATTR Value IRFP250N
SYMBOL res 1040 368 R0
SYMATTR InstName R3
SYMATTR Value 1Meg
SYMBOL res 640 720 R0
SYMATTR InstName R4
SYMATTR Value 3
SYMBOL res 528 304 R0
SYMATTR InstName R5
SYMATTR Value 1
SYMBOL diode 528 512 R0
SYMATTR InstName D2
SYMATTR Value 1N4148
SYMBOL diode 528 608 R0
SYMATTR InstName D3
SYMATTR Value 1N4148
SYMBOL res 528 720 R0
SYMATTR InstName R6
SYMATTR Value 3k
SYMBOL npn 320 528 M0
SYMATTR InstName Q1
SYMBOL res 240 688 R0
SYMATTR InstName R7
SYMATTR Value 100
SYMBOL res 736 160 R270
WINDOW 0 32 56 VTop 2
WINDOW 3 0 56 VBottom 2
SYMATTR InstName R8
SYMATTR Value 1µ
SYMBOL PowerProducts\\LT1084 -48 144 R0
SYMATTR InstName U2
TEXT -664 680 Left 2 !.tran 0 100u 0
