Version 4
SHEET 1 2048 996
WIRE -496 -976 -528 -976
WIRE -528 -928 -528 -976
WIRE -144 -864 -176 -864
WIRE -528 -816 -528 -848
WIRE -448 -816 -528 -816
WIRE -176 -816 -176 -864
WIRE -176 -816 -240 -816
WIRE -112 -816 -176 -816
WIRE -448 -800 -448 -816
WIRE 192 -784 160 -784
WIRE 688 -784 656 -784
WIRE 1040 -784 1008 -784
WIRE -528 -752 -528 -816
WIRE -512 -752 -528 -752
WIRE 160 -736 160 -784
WIRE 160 -736 96 -736
WIRE 224 -736 160 -736
WIRE 656 -736 656 -784
WIRE 656 -736 592 -736
WIRE 720 -736 656 -736
WIRE 1008 -736 1008 -784
WIRE 1008 -736 944 -736
WIRE 1072 -736 1008 -736
WIRE -528 -720 -528 -752
WIRE -240 -720 -240 -816
WIRE -112 -720 -112 -816
WIRE -448 -672 -448 -704
WIRE -448 -672 -464 -672
WIRE -304 -672 -448 -672
WIRE -176 -672 -304 -672
WIRE 96 -656 96 -736
WIRE 224 -656 224 -736
WIRE 592 -656 592 -736
WIRE 720 -656 720 -736
WIRE -528 -608 -528 -624
WIRE 944 -592 944 -736
WIRE -240 -576 -240 -624
WIRE -112 -576 -112 -624
WIRE 592 -544 592 -576
WIRE 880 -544 592 -544
WIRE 1072 -528 1072 -736
WIRE -528 -496 -528 -544
WIRE 720 -480 720 -576
WIRE 1008 -480 720 -480
WIRE 96 -464 96 -576
WIRE 448 -464 96 -464
WIRE 224 -448 224 -576
WIRE 416 -448 224 -448
WIRE 96 -432 96 -464
WIRE 224 -432 224 -448
WIRE 592 -432 592 -544
WIRE 720 -432 720 -480
WIRE -240 -384 -240 -496
WIRE -240 -384 -608 -384
WIRE 32 -384 -240 -384
WIRE 320 -384 288 -384
WIRE 448 -384 448 -464
WIRE 528 -384 448 -384
WIRE 816 -384 784 -384
WIRE 944 -384 944 -496
WIRE 1136 -384 944 -384
WIRE 1072 -336 1072 -432
WIRE 1136 -336 1072 -336
WIRE 96 -288 96 -336
WIRE 160 -288 96 -288
WIRE 224 -288 224 -336
WIRE 224 -288 160 -288
WIRE 592 -288 592 -336
WIRE 656 -288 592 -288
WIRE 720 -288 720 -336
WIRE 720 -288 656 -288
WIRE 416 -272 416 -448
WIRE 816 -272 816 -384
WIRE 816 -272 416 -272
WIRE -112 -240 -112 -496
WIRE -112 -240 -608 -240
WIRE 320 -240 320 -384
WIRE 320 -240 -112 -240
WIRE -112 -176 -192 -176
WIRE 32 -176 -112 -176
WIRE -192 -160 -192 -176
WIRE -112 -32 -112 -176
WIRE -192 16 -192 -80
WIRE -176 16 -192 16
WIRE -192 48 -192 16
WIRE 160 48 160 -288
WIRE 656 48 656 -288
WIRE -112 96 -112 64
WIRE -112 96 -128 96
WIRE 96 96 -112 96
WIRE 592 96 96 96
WIRE 656 160 656 144
WIRE 960 160 656 160
WIRE 160 176 160 144
WIRE 656 176 656 160
WIRE -192 192 -192 144
WIRE 912 272 896 272
WIRE 960 272 960 240
WIRE 912 288 912 272
WIRE -192 304 -192 256
WIRE 160 304 160 256
WIRE 656 304 656 256
WIRE 912 416 912 336
WIRE 960 416 960 352
WIRE -384 464 -512 464
WIRE 64 464 -224 464
WIRE 192 464 144 464
WIRE 256 464 192 464
WIRE -560 496 -592 496
WIRE -512 496 -512 464
WIRE -560 512 -560 496
WIRE -224 512 -224 464
WIRE 192 512 192 464
WIRE -560 576 -560 560
WIRE -560 576 -592 576
WIRE -512 608 -512 576
WIRE -224 640 -224 592
WIRE 192 640 192 576
FLAG 192 -784 VCC
FLAG 160 304 0
FLAG -192 304 0
FLAG 32 -176 VCC
FLAG -144 -864 VCC
FLAG -528 -496 0
FLAG -496 -976 VCC
IOPIN -496 -976 BiDir
FLAG 960 416 0
FLAG 1040 -784 VCC
FLAG 1136 -384 OUT+
IOPIN 1136 -384 Out
FLAG 1136 -336 OUT-
IOPIN 1136 -336 Out
FLAG -608 -384 IN+
IOPIN -608 -384 In
FLAG -608 -240 IN-
IOPIN -608 -240 In
FLAG -512 608 0
FLAG -592 496 IN+
FLAG -592 576 IN-
FLAG 256 464 LEVEL_DET
IOPIN 256 464 Out
FLAG 912 416 0
FLAG 896 272 LEVEL_DET
FLAG -224 640 0
FLAG -384 464 VIN_DIFF
FLAG 688 -784 VCC
FLAG 656 304 0
FLAG 192 640 0
SYMBOL npn 32 -432 R0
SYMATTR InstName Q1
SYMBOL npn 288 -432 M0
SYMATTR InstName Q2
SYMBOL res 80 -672 R0
SYMATTR InstName R1
SYMATTR Value 100
SYMBOL res 208 -672 R0
SYMATTR InstName R2
SYMATTR Value 100
SYMBOL npn 96 48 R0
SYMATTR InstName Q3
SYMBOL res 144 160 R0
SYMATTR InstName R3
SYMATTR Value 50.0
SYMBOL npn -128 48 M0
SYMATTR InstName Q4
SYMBOL npn -176 -32 R0
SYMATTR InstName Q5
SYMBOL res -208 -176 R0
SYMATTR InstName R4
SYMATTR Value 5k
SYMBOL res -256 -592 R0
SYMATTR InstName R5
SYMATTR Value 200
SYMBOL res -128 -592 R0
SYMATTR InstName R6
SYMATTR Value 200
SYMBOL npn -304 -720 R0
SYMATTR InstName Q6
SYMBOL npn -176 -720 R0
SYMATTR InstName Q7
SYMBOL npn -464 -720 M0
SYMATTR InstName Q8
SYMBOL npn -512 -800 R0
SYMATTR InstName Q9
SYMBOL res -544 -944 R0
SYMATTR InstName R7
SYMATTR Value 5k
SYMBOL References\\LT1389-2.5 -528 -576 R0
SYMATTR InstName U1
SYMBOL References\\LT1389-1.25 -192 224 R0
SYMATTR InstName U2
SYMBOL res 944 144 R0
SYMATTR InstName R10
SYMATTR Value 50.0
SYMBOL npn 880 -592 R0
SYMATTR InstName Q13
SYMBOL npn 1008 -528 R0
SYMATTR InstName Q14
SYMBOL e -512 480 R0
SYMATTR InstName E1
SYMATTR Value 1
SYMBOL sw 960 368 M180
SYMATTR InstName S1
SYMBOL bv -224 496 R0
SYMATTR InstName B1
SYMATTR Value V={ABS(V(VIN_DIFF))}
SYMBOL npn 528 -432 R0
SYMATTR InstName Q10
SYMBOL npn 784 -432 M0
SYMATTR InstName Q11
SYMBOL res 576 -672 R0
SYMATTR InstName R8
SYMATTR Value 100
SYMBOL res 704 -672 R0
SYMATTR InstName R9
SYMATTR Value 100
SYMBOL npn 592 48 R0
SYMATTR InstName Q12
SYMBOL res 640 160 R0
SYMATTR InstName R11
SYMATTR Value 10k
SYMBOL res 48 480 R270
WINDOW 0 32 56 VTop 2
WINDOW 3 0 56 VBottom 2
SYMATTR InstName R12
SYMATTR Value 200
SYMBOL cap 176 512 R0
SYMATTR InstName C1
SYMATTR Value 10p
TEXT 440 456 Left 2 !.model SW SW( Ron=1, Roff = 10Meg, Vt={LOS_THRES}, Vh={LOS_HYST})
TEXT 432 520 Left 2 !.param LOS_THRES=22m\n.param LOS_HYST=-2m
