Version 4
SHEET 1 1716 948
WIRE -800 -256 -800 -288
WIRE -576 -256 -576 -288
WIRE -400 -256 -400 -288
WIRE -80 -240 -80 -272
WIRE 224 -240 224 -272
WIRE -800 -128 -800 -176
WIRE -576 -128 -576 -176
WIRE -400 -128 -400 -176
WIRE -80 -112 -80 -160
WIRE 224 -112 224 -160
WIRE 112 96 112 32
WIRE 784 96 784 32
WIRE 1440 96 1440 32
WIRE 112 224 112 176
WIRE 784 224 784 176
WIRE 1440 224 1440 176
WIRE -1152 256 -1280 256
WIRE -1552 352 -1648 352
WIRE -1440 352 -1488 352
WIRE -1280 352 -1280 256
WIRE -1280 352 -1440 352
WIRE 112 352 112 304
WIRE 784 352 784 304
WIRE 1440 352 1440 304
WIRE -1024 384 -1024 272
WIRE -1152 432 -1152 256
WIRE -1120 432 -1152 432
WIRE -848 448 -928 448
WIRE 112 480 112 432
WIRE 784 480 784 432
WIRE 1440 480 1440 432
WIRE -848 544 -928 544
WIRE -1536 560 -1760 560
WIRE -1424 560 -1472 560
WIRE -1264 560 -1424 560
WIRE -1120 560 -1264 560
WIRE -848 640 -928 640
WIRE -1120 656 -1200 656
WIRE 112 656 112 560
WIRE 784 656 784 560
WIRE 1440 656 1440 560
WIRE 48 704 -80 704
WIRE 720 704 576 704
WIRE 1376 704 1248 704
WIRE -1088 720 -1088 704
WIRE -1024 720 -1024 704
WIRE -960 720 -960 704
WIRE -1472 752 -1568 752
WIRE -1360 752 -1408 752
WIRE -1200 752 -1200 656
WIRE -1200 752 -1360 752
WIRE 112 768 112 752
WIRE 192 768 112 768
WIRE 320 768 256 768
WIRE 784 768 784 752
WIRE 864 768 784 768
WIRE 992 768 928 768
WIRE 1440 768 1440 752
WIRE 1520 768 1440 768
WIRE 1648 768 1584 768
WIRE 112 800 112 768
WIRE 320 800 320 768
WIRE 784 800 784 768
WIRE 992 800 992 768
WIRE 1440 800 1440 768
WIRE 1648 800 1648 768
WIRE 112 928 112 880
WIRE 320 928 320 880
WIRE 784 928 784 880
WIRE 992 928 992 880
WIRE 1440 928 1440 880
WIRE 1648 928 1648 880
FLAG 112 928 0
FLAG 320 928 0
FLAG 112 32 VLED
FLAG 784 928 0
FLAG 992 928 0
FLAG 784 32 VLED
FLAG 1440 928 0
FLAG 1648 928 0
FLAG 1440 32 VLED
FLAG -576 -288 VLED
FLAG -576 -128 0
FLAG -400 -288 IN_BUF1
FLAG -400 -128 0
FLAG -80 -272 IN_BUF2
FLAG -80 -112 0
FLAG 224 -272 IN_BUF3
FLAG 224 -112 0
FLAG -1024 720 0
FLAG -960 720 0
FLAG -1024 272 VCC
FLAG -800 -288 VCC
FLAG -800 -128 0
FLAG -1200 832 0
FLAG -1360 832 VCC
FLAG -848 448 IN1
FLAG -848 544 IN2
FLAG -848 640 IN3
FLAG -1264 640 0
FLAG -1424 640 VCC
FLAG -1280 432 0
FLAG -1440 432 VCC
FLAG -1648 352 IN_BUF1
FLAG -1760 560 IN_BUF2
FLAG -1568 752 IN_BUF3
FLAG -80 704 IN1
FLAG 576 704 IN2
FLAG 1248 704 IN3
FLAG -1088 720 0
SYMBOL voltage 112 80 R0
WINDOW 123 0 0 Left 0
WINDOW 39 0 0 Left 0
SYMATTR InstName V1
SYMATTR Value {Vf_B}
SYMBOL voltage 112 208 R0
WINDOW 123 0 0 Left 0
WINDOW 39 0 0 Left 0
SYMATTR InstName V2
SYMATTR Value {Vf_B}
SYMBOL voltage 112 336 R0
WINDOW 123 0 0 Left 0
WINDOW 39 0 0 Left 0
SYMATTR InstName V3
SYMATTR Value {Vf_B}
SYMBOL res 96 464 R0
SYMATTR InstName R1
SYMATTR Value 1
SYMBOL npn 48 656 R0
SYMATTR InstName Q1
SYMBOL res 96 784 R0
SYMATTR InstName R4
SYMATTR Value 10
SYMBOL cap 256 752 R90
WINDOW 0 0 32 VBottom 2
WINDOW 3 32 32 VTop 2
SYMATTR InstName C1
SYMATTR Value 1000pF
SYMBOL res 304 784 R0
SYMATTR InstName R5
SYMATTR Value 1
SYMBOL voltage 784 80 R0
WINDOW 123 0 0 Left 0
WINDOW 39 0 0 Left 0
SYMATTR InstName V4
SYMATTR Value {Vf_G}
SYMBOL voltage 784 208 R0
WINDOW 123 0 0 Left 0
WINDOW 39 0 0 Left 0
SYMATTR InstName V5
SYMATTR Value {Vf_G}
SYMBOL voltage 784 336 R0
WINDOW 123 0 0 Left 0
WINDOW 39 0 0 Left 0
SYMATTR InstName V6
SYMATTR Value {Vf_G}
SYMBOL res 768 464 R0
SYMATTR InstName R2
SYMATTR Value 1
SYMBOL npn 720 656 R0
SYMATTR InstName Q2
SYMBOL res 768 784 R0
SYMATTR InstName R3
SYMATTR Value 10
SYMBOL cap 928 752 R90
WINDOW 0 0 32 VBottom 2
WINDOW 3 32 32 VTop 2
SYMATTR InstName C2
SYMATTR Value 1000pF
SYMBOL res 976 784 R0
SYMATTR InstName R7
SYMATTR Value 1
SYMBOL voltage 1440 80 R0
WINDOW 123 0 0 Left 0
WINDOW 39 0 0 Left 0
SYMATTR InstName V7
SYMATTR Value {Vf_R}
SYMBOL voltage 1440 208 R0
WINDOW 123 0 0 Left 0
WINDOW 39 0 0 Left 0
SYMATTR InstName V8
SYMATTR Value {Vf_R}
SYMBOL voltage 1440 336 R0
WINDOW 123 0 0 Left 0
WINDOW 39 0 0 Left 0
SYMATTR InstName V9
SYMATTR Value {Vf_R}
SYMBOL res 1424 464 R0
SYMATTR InstName R9
SYMATTR Value 10
SYMBOL npn 1376 656 R0
SYMATTR InstName Q3
SYMBOL res 1424 784 R0
SYMATTR InstName R10
SYMATTR Value 10
SYMBOL cap 1584 752 R90
WINDOW 0 0 32 VBottom 2
WINDOW 3 32 32 VTop 2
SYMATTR InstName C3
SYMATTR Value 1000pF
SYMBOL res 1632 784 R0
SYMATTR InstName R11
SYMATTR Value 1
SYMBOL voltage -576 -272 R0
WINDOW 123 0 0 Left 0
WINDOW 39 0 0 Left 0
SYMATTR InstName V10
SYMATTR Value 18
SYMBOL voltage -400 -272 R0
WINDOW 123 0 0 Left 0
WINDOW 39 0 0 Left 0
SYMATTR InstName V11
SYMATTR Value SINE(2.5 1.5 10Meg)
SYMBOL Opamps\\LT6554 -1024 464 R0
SYMATTR InstName U1
SYMBOL voltage -800 -272 R0
WINDOW 123 0 0 Left 0
WINDOW 39 0 0 Left 0
SYMATTR InstName V14
SYMATTR Value 4.7
SYMBOL res -1216 736 R0
SYMATTR InstName R13
SYMATTR Value 100.0
SYMBOL res -1376 736 R0
SYMATTR InstName R14
SYMATTR Value 100.0
SYMBOL cap -1408 736 R90
WINDOW 0 0 32 VBottom 2
WINDOW 3 32 32 VTop 2
SYMATTR InstName C4
SYMATTR Value 0.1µF
SYMBOL res -1280 544 R0
SYMATTR InstName R15
SYMATTR Value 100.0
SYMBOL res -1440 544 R0
SYMATTR InstName R16
SYMATTR Value 100.0
SYMBOL cap -1472 544 R90
WINDOW 0 0 32 VBottom 2
WINDOW 3 32 32 VTop 2
SYMATTR InstName C5
SYMATTR Value 0.1µF
SYMBOL res -1296 336 R0
SYMATTR InstName R17
SYMATTR Value 100.0
SYMBOL res -1456 336 R0
SYMATTR InstName R18
SYMATTR Value 100.0
SYMBOL cap -1488 336 R90
WINDOW 0 0 32 VBottom 2
WINDOW 3 32 32 VTop 2
SYMATTR InstName C6
SYMATTR Value 0.1µF
SYMBOL voltage -80 -256 R0
WINDOW 123 0 0 Left 0
WINDOW 39 0 0 Left 0
SYMATTR InstName V12
SYMATTR Value SINE(2.5 1.5 10Meg)
SYMBOL voltage 224 -256 R0
WINDOW 123 0 0 Left 0
WINDOW 39 0 0 Left 0
SYMATTR InstName V13
SYMATTR Value SINE(2.5 1.5 10Meg)
TEXT -584 -72 Left 2 !.tran 0 10u 0
TEXT 616 -208 Left 2 !.param Vf_R = 2.6\n.param Vf_G = 3.8\n.param Vf_B = 3.8
