Version 4
SHEET 1 5332 2548
WIRE 240 -1056 240 -1120
WIRE 80 -960 -16 -960
WIRE 240 -960 240 -976
WIRE 240 -960 144 -960
WIRE 640 -960 640 -976
WIRE 240 -928 240 -960
WIRE 576 -928 240 -928
WIRE 704 -928 704 -976
WIRE 240 -896 240 -928
WIRE 912 -896 768 -896
WIRE 960 -896 912 -896
WIRE 1152 -896 1040 -896
WIRE 576 -864 464 -864
WIRE 640 -816 640 -832
WIRE 704 -816 704 -864
WIRE 1152 -800 1152 -896
WIRE 1152 -800 1008 -800
WIRE 240 -672 240 -816
WIRE 464 -672 464 -864
WIRE 912 -672 912 -896
WIRE 912 -672 464 -672
WIRE 3104 -640 3104 -720
WIRE 3104 -640 3072 -640
WIRE 1888 -608 1712 -608
WIRE 2064 -608 1888 -608
WIRE 2352 -608 2064 -608
WIRE 2656 -608 2416 -608
WIRE 2736 -608 2656 -608
WIRE 2816 -608 2736 -608
WIRE 3216 -608 3072 -608
WIRE 3392 -608 3280 -608
WIRE 3552 -608 3392 -608
WIRE 3104 -576 3072 -576
WIRE 3392 -576 3392 -608
WIRE 3104 -528 3104 -576
WIRE 1120 -512 1120 -560
WIRE 1664 -512 1120 -512
WIRE 1712 -496 1712 -608
WIRE 2736 -496 2736 -608
WIRE 1664 -480 1664 -512
WIRE 1888 -480 1888 -608
WIRE 2064 -480 2064 -608
WIRE 2656 -480 2656 -608
WIRE 3392 -480 3392 -496
WIRE 1120 -464 1120 -512
WIRE 1120 -352 1120 -384
WIRE 1664 -352 1664 -432
WIRE 1664 -352 1120 -352
WIRE 1120 -336 1120 -352
WIRE 752 -304 752 -352
WIRE 1712 -272 1712 -416
WIRE 2064 -272 2064 -416
WIRE 2656 -272 2656 -400
WIRE 2736 -272 2736 -432
WIRE -176 -256 -176 -304
WIRE 1120 -240 1120 -272
WIRE 1888 -240 1888 -400
WIRE 752 -160 752 -224
WIRE 1120 -144 1120 -176
WIRE -176 -112 -176 -176
WIRE -192 16 -224 16
WIRE 1120 32 1120 -80
WIRE 800 48 800 16
WIRE 800 48 784 48
WIRE -224 80 -224 16
WIRE 32 80 -224 80
WIRE 224 80 32 80
WIRE 400 80 288 80
WIRE 592 80 400 80
WIRE 864 80 784 80
WIRE 1056 80 944 80
WIRE 400 112 400 80
WIRE 448 112 400 112
WIRE 560 112 528 112
WIRE 592 112 560 112
WIRE 800 112 784 112
WIRE 1120 144 1120 128
WIRE 1312 144 1120 144
WIRE 32 160 32 80
WIRE 1312 160 1312 144
WIRE 560 192 560 112
WIRE 800 192 800 112
WIRE -224 240 -224 80
WIRE 1120 288 1120 144
WIRE 32 320 32 240
WIRE 560 320 560 256
WIRE 1312 320 1312 224
WIRE -224 480 -224 320
WIRE 1120 512 1120 368
WIRE 1312 512 1312 400
FLAG 800 192 0
FLAG 800 16 VCC
FLAG -176 -304 VCC
FLAG -176 -112 0
FLAG -224 480 0
FLAG -192 16 VIN
FLAG 560 320 0
FLAG 32 320 0
FLAG 2064 -272 0
FLAG 1712 -272 0
FLAG 1120 512 0
FLAG 1312 512 0
FLAG 1120 -560 VLED
FLAG 752 -352 VLED
FLAG 752 -160 0
FLAG 3104 -528 0
FLAG 3104 -720 VCC
FLAG 3552 -608 OUT_TIA
FLAG 1888 -240 0
FLAG 2656 -272 0
FLAG 2736 -272 0
FLAG 640 -816 0
FLAG 640 -976 VCC
FLAG 704 -976 VCC
FLAG 704 -816 0
FLAG 240 -672 0
FLAG 240 -1120 VCC
FLAG -16 -960 VIN
FLAG 3392 -480 0
DATAFLAG 1248 144 ""
SYMBOL BUF602 688 80 R0
WINDOW 3 -94 67 Left 2
WINDOW 0 -97 -61 Left 2
SYMATTR InstName U1
SYMBOL voltage -176 -272 M0
WINDOW 123 0 0 Left 0
WINDOW 39 0 0 Left 0
SYMATTR InstName V1
SYMATTR Value 5
SYMBOL res 432 128 R270
WINDOW 0 32 56 VTop 2
WINDOW 3 0 56 VBottom 2
SYMATTR InstName R1
SYMATTR Value 2k
SYMBOL cap 544 192 R0
SYMATTR InstName C3
SYMATTR Value 1µ
SYMBOL cap 224 96 R270
WINDOW 0 32 32 VTop 2
WINDOW 3 0 32 VBottom 2
SYMATTR InstName C4
SYMATTR Value 0.01µF
SYMBOL res 16 144 R0
SYMATTR InstName R2
SYMATTR Value 1k
SYMBOL voltage -224 224 M0
WINDOW 123 24 124 Left 2
WINDOW 39 24 152 Left 2
SYMATTR Value2 AC 1
SYMATTR SpiceLine Rser=50.0
SYMATTR InstName Vs
SYMATTR Value PWL file=Real_100Mbps_Data.txt
SYMBOL Infineon_RF_NPN_3Pin 1056 32 R0
SYMATTR InstName U4
SYMATTR Value BFR106
SYMBOL LED 1104 -336 R0
SYMATTR InstName D1
SYMATTR Value LUW-W5AP
SYMATTR Description Diode
SYMATTR Type diode
SYMBOL cap 2048 -480 R0
SYMATTR InstName C6
SYMATTR Value 50pF
SYMBOL res 1872 -496 R0
SYMATTR InstName R14
SYMATTR Value 10Meg
SYMBOL res 1104 272 R0
SYMATTR InstName R15
SYMATTR Value 25
SYMBOL cap 1296 160 R0
SYMATTR InstName C7
SYMATTR Value 680pF
SYMBOL res 1104 -480 R0
SYMATTR InstName R16
SYMATTR Value 1µ
SYMBOL g 1712 -512 R0
SYMATTR InstName G1
SYMATTR Value 100.0
SYMBOL LED 1104 -240 R0
SYMATTR InstName D2
SYMATTR Value LUW-W5AP
SYMATTR Description Diode
SYMATTR Type diode
SYMBOL LED 1104 -144 R0
SYMATTR InstName D3
SYMATTR Value LUW-W5AP
SYMATTR Description Diode
SYMATTR Type diode
SYMBOL res 848 96 R270
WINDOW 0 32 56 VTop 2
WINDOW 3 0 56 VBottom 2
SYMATTR InstName R3
SYMATTR Value 24.9
SYMBOL voltage 752 -320 M0
WINDOW 123 0 0 Left 0
WINDOW 39 0 0 Left 0
SYMATTR InstName V3
SYMATTR Value 15
SYMBOL HMC799 2944 -608 R0
WINDOW 3 -126 79 Left 2
WINDOW 0 -127 -80 Left 2
SYMATTR InstName U2
SYMBOL cap 2352 -592 R270
WINDOW 0 32 32 VTop 2
WINDOW 3 0 32 VBottom 2
SYMATTR InstName C5
SYMATTR Value 1n
SYMBOL bi 2656 -400 R180
WINDOW 0 24 80 Left 2
WINDOW 3 24 0 Left 2
SYMATTR InstName B1
SYMATTR Value I={1u*white(700Meg*time)}
SYMBOL cap 2720 -496 R0
SYMATTR InstName C10
SYMATTR Value 4p
SYMBOL OPA698 640 -896 R0
SYMATTR InstName U3
SYMBOL res 224 -912 R0
SYMATTR InstName R9
SYMATTR Value 1k
SYMBOL res 224 -1072 R0
SYMATTR InstName R10
SYMATTR Value 1k
SYMBOL cap 144 -976 R90
WINDOW 0 0 32 VBottom 2
WINDOW 3 32 32 VTop 2
SYMATTR InstName C11
SYMATTR Value 1n
SYMBOL res 944 -880 R270
WINDOW 0 32 56 VTop 2
WINDOW 3 0 56 VBottom 2
SYMATTR InstName R12
SYMATTR Value 24.9
SYMBOL res 1296 304 R0
SYMATTR InstName R13
SYMATTR Value 1
SYMBOL res 3376 -592 R0
SYMATTR InstName RTERM
SYMATTR Value 50.0
SYMBOL cap 3280 -624 R90
WINDOW 0 0 32 VBottom 2
WINDOW 3 32 32 VTop 2
SYMATTR InstName C1
SYMATTR Value 100n
TEXT -664 -992 Left 2 !.lib Infineon-RFTransistor-SPICE.lib-SM-v02_10-EN.lib
TEXT -232 544 Left 2 !;tran 0 1.1u 0
TEXT -656 -936 Left 2 !.lib OPA698.lib
TEXT -648 -864 Left 2 !.lib BUF602.lib
TEXT 1064 600 Left 4 ;Transconductance \nResistor (R10)\nand Pre-Emphasis
TEXT 1536 -952 Left 5 ;1st Order, 300MHz LPF:\nEmulates finite response\ntime of LED\n(Output = Current through\nR4)
TEXT -656 -960 Left 2 !.lib HMC799.lib
TEXT -640 -824 Left 2 !.ac dec 1k 1k 1G
TEXT -232 584 Left 2 !.net I(RTERM) Vs
RECTANGLE Normal 1408 560 1056 128 2
RECTANGLE Normal 2176 -192 1536 -640 2
