Version 4
SHEET 1 5332 2548
WIRE 304 -1136 -176 -1136
WIRE 400 -1136 304 -1136
WIRE 544 -1136 480 -1136
WIRE 656 -1136 624 -1136
WIRE 752 -1136 656 -1136
WIRE 896 -1136 832 -1136
WIRE 1024 -1136 976 -1136
WIRE -176 -1088 -176 -1136
WIRE 304 -1072 304 -1136
WIRE 656 -1072 656 -1136
WIRE -176 -944 -176 -1008
WIRE 304 -944 304 -1008
WIRE 656 -944 656 -1008
WIRE 1024 -944 1024 -1136
WIRE 352 -592 160 -592
WIRE 448 -592 352 -592
WIRE 592 -592 528 -592
WIRE 704 -592 672 -592
WIRE 800 -592 704 -592
WIRE 944 -592 880 -592
WIRE 1072 -592 1024 -592
WIRE 352 -528 352 -592
WIRE 704 -528 704 -592
WIRE 352 -400 352 -464
WIRE 704 -400 704 -464
WIRE 160 -112 160 -592
WIRE 1072 -112 1072 -592
WIRE -672 0 -704 0
WIRE 160 16 160 -32
WIRE -704 64 -704 0
WIRE -64 64 -704 64
WIRE 96 64 16 64
WIRE -704 96 -704 64
WIRE 160 208 160 112
WIRE -704 224 -704 176
WIRE -704 464 -704 304
WIRE 160 464 160 288
WIRE 1072 464 1072 -32
FLAG -704 464 0
FLAG -672 0 VIN
FLAG 160 464 0
FLAG 1072 464 0
FLAG 704 -400 0
FLAG 352 -400 0
FLAG 656 -944 0
FLAG 304 -944 0
FLAG 1024 -944 0
FLAG -176 -944 0
SYMBOL voltage -704 208 M0
WINDOW 123 24 124 Left 2
WINDOW 39 0 0 Left 0
WINDOW 3 24 44 Left 2
SYMATTR Value2 AC 1
SYMATTR Value PULSE(0 2.5 0 500p 500p 50n 100n)
SYMATTR InstName VIN
SYMBOL Infineon_RF_NPN_3Pin 96 16 R0
SYMATTR InstName U4
SYMATTR Value BFU590Q
SYMBOL res 144 192 R0
SYMATTR InstName R1
SYMATTR Value 50
SYMBOL voltage 1072 -128 R0
WINDOW 123 0 0 Left 0
WINDOW 39 0 0 Left 0
SYMATTR InstName V1
SYMATTR Value 3.3
SYMBOL ind 784 -576 R270
WINDOW 0 32 56 VTop 2
WINDOW 3 5 56 VBottom 2
SYMATTR InstName L1
SYMATTR Value 10µ
SYMBOL cap 688 -528 R0
SYMATTR InstName C1
SYMATTR Value 10µ
SYMBOL res 1040 -608 R90
WINDOW 0 0 56 VBottom 2
WINDOW 3 32 56 VTop 2
SYMATTR InstName R3
SYMATTR Value 100m
SYMBOL ind 432 -576 R270
WINDOW 0 32 56 VTop 2
WINDOW 3 5 56 VBottom 2
SYMATTR InstName L2
SYMATTR Value 1µ
SYMBOL cap 336 -528 R0
SYMATTR InstName C2
SYMATTR Value 10nF
SYMBOL res 688 -608 R90
WINDOW 0 0 56 VBottom 2
WINDOW 3 32 56 VTop 2
SYMATTR InstName R4
SYMATTR Value 50m
SYMBOL ind 736 -1120 R270
WINDOW 0 32 56 VTop 2
WINDOW 3 5 56 VBottom 2
SYMATTR InstName L3
SYMATTR Value 10µ
SYMBOL cap 640 -1072 R0
SYMATTR InstName C3
SYMATTR Value 10µ
SYMBOL res 992 -1152 R90
WINDOW 0 0 56 VBottom 2
WINDOW 3 32 56 VTop 2
SYMATTR InstName R5
SYMATTR Value 100m
SYMBOL ind 384 -1120 R270
WINDOW 0 32 56 VTop 2
WINDOW 3 5 56 VBottom 2
SYMATTR InstName L4
SYMATTR Value 1µ
SYMBOL cap 288 -1072 R0
SYMATTR InstName C4
SYMATTR Value 10nF
SYMBOL res 640 -1152 R90
WINDOW 0 0 56 VBottom 2
WINDOW 3 32 56 VTop 2
SYMATTR InstName R6
SYMATTR Value 50m
SYMBOL current -176 -1008 R180
WINDOW 0 24 80 Left 2
WINDOW 3 24 0 Invisible 2
WINDOW 123 24 52 Left 2
WINDOW 39 0 0 Left 0
SYMATTR InstName I1
SYMATTR Value 0
SYMATTR Value2 AC 1
SYMBOL res 32 48 R90
WINDOW 0 0 56 VBottom 2
WINDOW 3 32 56 VTop 2
SYMATTR InstName R2
SYMATTR Value 24.9
SYMBOL res -720 80 R0
SYMATTR InstName R7
SYMATTR Value 50
SYMBOL res 144 -128 R0
SYMATTR InstName R8
SYMATTR Value 10m
TEXT -712 528 Left 2 !.tran 0 10u 0
TEXT -656 -936 Left 2 !.lib OPA698.lib
TEXT -648 -864 Left 2 !.lib BUF602.lib
TEXT -656 -960 Left 2 !.lib HMC799.lib
TEXT -640 -824 Left 2 !;ac dec 1k 10 10G
TEXT -648 -992 Left 2 !.lib BFU590Q.LIB
