Version 4
SHEET 1 5332 2548
WIRE 3104 -640 3104 -720
WIRE 3104 -640 3072 -640
WIRE 1888 -608 1712 -608
WIRE 2064 -608 1888 -608
WIRE 2352 -608 2064 -608
WIRE 2656 -608 2416 -608
WIRE 2736 -608 2656 -608
WIRE 2816 -608 2736 -608
WIRE 3136 -608 3072 -608
WIRE 3104 -576 3072 -576
WIRE 496 -528 496 -576
WIRE 736 -528 736 -576
WIRE 3104 -528 3104 -576
WIRE 1120 -512 1120 -560
WIRE 1664 -512 1120 -512
WIRE 1712 -496 1712 -608
WIRE 1888 -496 1888 -608
WIRE 2736 -496 2736 -608
WIRE 1664 -480 1664 -512
WIRE 2064 -480 2064 -608
WIRE 2656 -480 2656 -608
WIRE 1120 -464 1120 -512
WIRE 496 -384 496 -448
WIRE 736 -384 736 -448
WIRE 3264 -368 3168 -368
WIRE 3392 -368 3328 -368
WIRE 3664 -368 3392 -368
WIRE 1120 -352 1120 -384
WIRE 1664 -352 1664 -432
WIRE 1664 -352 1120 -352
WIRE 1120 -336 1120 -352
WIRE 3168 -336 3168 -368
WIRE 3392 -336 3392 -368
WIRE 3120 -320 2976 -320
WIRE 1712 -272 1712 -416
WIRE 1888 -272 1888 -416
WIRE 2064 -272 2064 -416
WIRE 2656 -272 2656 -400
WIRE 2736 -272 2736 -432
WIRE 1120 -240 1120 -272
WIRE 3120 -224 3120 -272
WIRE 3168 -224 3168 -256
WIRE 3392 -224 3392 -256
WIRE 1120 -144 1120 -176
WIRE -672 0 -704 0
WIRE 672 16 672 -64
WIRE 240 32 240 0
WIRE 240 32 224 32
WIRE 1120 32 1120 -80
WIRE -704 64 -704 0
WIRE -272 64 -704 64
WIRE -160 64 -208 64
WIRE 32 64 -160 64
WIRE 576 64 224 64
WIRE 944 80 768 80
WIRE 1056 80 1024 80
WIRE -160 96 -160 64
WIRE -112 96 -160 96
WIRE 0 96 -32 96
WIRE 32 96 0 96
WIRE 240 96 224 96
WIRE -704 112 -704 64
WIRE 1120 144 1120 128
WIRE 1312 144 1120 144
WIRE 1312 160 1312 144
WIRE 0 176 0 96
WIRE 240 176 240 96
WIRE 576 192 480 192
WIRE -704 224 -704 192
WIRE 480 288 480 192
WIRE 576 288 480 288
WIRE 1120 288 1120 144
WIRE 0 304 0 240
WIRE 1312 320 1312 224
WIRE 480 352 480 288
WIRE 608 352 608 336
WIRE 672 352 672 336
WIRE 736 352 736 336
WIRE -704 464 -704 304
WIRE 1120 512 1120 368
WIRE 1312 512 1312 400
FLAG 240 176 0
FLAG 240 0 VCC
FLAG 496 -576 VCC
FLAG 496 -384 0
FLAG -704 464 0
FLAG -672 0 VIN
FLAG 0 304 0
FLAG 2064 -272 0
FLAG 1712 -272 0
FLAG 1120 512 0
FLAG 1312 512 0
FLAG 1120 -560 VLED
FLAG 736 -576 VLED
FLAG 736 -384 0
FLAG 3104 -528 0
FLAG 3104 -720 VCC
FLAG 3136 -608 OUT_TIA
FLAG 1888 -272 0
FLAG 3120 -224 0
FLAG 3664 -368 OUT_TIA_INV
FLAG 3168 -224 0
FLAG 2976 -320 OUT_TIA
FLAG 2656 -272 0
FLAG 2736 -272 0
FLAG 3392 -224 0
FLAG 672 352 0
FLAG 736 352 0
FLAG 672 -64 VCC
FLAG 480 352 0
FLAG 608 352 0
DATAFLAG 1248 144 ""
SYMBOL BUF602 128 64 R0
WINDOW 3 -94 67 Left 2
WINDOW 0 -97 -61 Left 2
SYMATTR InstName U1
SYMBOL voltage 496 -544 M0
WINDOW 123 0 0 Left 0
WINDOW 39 0 0 Left 0
SYMATTR InstName V1
SYMATTR Value 4.7
SYMBOL res -128 112 R270
WINDOW 0 32 56 VTop 2
WINDOW 3 0 56 VBottom 2
SYMATTR InstName R1
SYMATTR Value 49.9
SYMBOL cap -16 176 R0
SYMATTR InstName C3
SYMATTR Value 1µ
SYMBOL cap -272 80 R270
WINDOW 0 32 32 VTop 2
WINDOW 3 0 32 VBottom 2
SYMATTR InstName C4
SYMATTR Value 0.1µF
SYMBOL voltage -704 208 M0
WINDOW 123 24 124 Left 2
WINDOW 39 0 0 Left 0
SYMATTR Value2 AC 1
SYMATTR InstName V2
SYMATTR Value SINE(0 2 100Meg)
SYMBOL Infineon_RF_NPN_3Pin 1056 32 R0
SYMATTR InstName U4
SYMATTR Value BFU590Q
SYMBOL LED 1104 -336 R0
SYMATTR InstName D1
SYMATTR Value LUW-W5AP
SYMATTR Description Diode
SYMATTR Type diode
SYMBOL cap 2048 -480 R0
SYMATTR InstName Cchannel
SYMATTR Value 50pF
SYMBOL res 1872 -512 R0
SYMATTR InstName Rchannel
SYMATTR Value 10Meg
SYMBOL res 1104 272 R0
SYMATTR InstName REE
SYMATTR Value 10
SYMBOL cap 1296 160 R0
SYMATTR InstName CE_PRE_EMPHASIS
SYMATTR Value 1000pF
SYMBOL res 1104 -480 R0
SYMATTR InstName R16
SYMATTR Value 1µ
SYMBOL g 1712 -512 R0
SYMATTR InstName G1
SYMATTR Value 100.0
SYMBOL LED 1104 -240 R0
SYMATTR InstName D2
SYMATTR Value LUW-W5AP
SYMATTR Description Diode
SYMATTR Type diode
SYMBOL LED 1104 -144 R0
SYMATTR InstName D3
SYMATTR Value LUW-W5AP
SYMATTR Description Diode
SYMATTR Type diode
SYMBOL res 928 96 R270
WINDOW 0 32 56 VTop 2
WINDOW 3 0 56 VBottom 2
SYMATTR InstName R3
SYMATTR Value 24.9
SYMBOL voltage 736 -544 M0
WINDOW 123 0 0 Left 0
WINDOW 39 0 0 Left 0
SYMATTR InstName V3
SYMATTR Value 18
SYMBOL HMC799 2944 -608 R0
WINDOW 3 -126 79 Left 2
WINDOW 0 -127 -80 Left 2
SYMATTR InstName U2
SYMBOL cap 2352 -592 R270
WINDOW 0 32 32 VTop 2
WINDOW 3 0 32 VBottom 2
SYMATTR InstName C5
SYMATTR Value 1n
SYMBOL e 3168 -352 R0
SYMATTR InstName E1
SYMATTR Value -1
SYMBOL cap 2720 -496 R0
SYMATTR InstName C10
SYMATTR Value 4p
SYMBOL res -720 96 R0
SYMATTR InstName R17
SYMATTR Value 50.0
SYMBOL cap 3328 -384 R90
WINDOW 0 0 32 VBottom 2
WINDOW 3 32 32 VTop 2
SYMATTR InstName C12
SYMATTR Value 10n
SYMBOL res 3376 -352 R0
SYMATTR InstName R11
SYMATTR Value 10
SYMBOL res 1296 304 R0
SYMATTR InstName RE_PRE_EMPHASIS
SYMATTR Value 1
SYMBOL Opamps\\LT6554 672 96 R0
SYMATTR InstName U3
TEXT -712 528 Left 2 !.tran 10u
TEXT -656 -936 Left 2 !.lib OPA698.lib
TEXT -648 -864 Left 2 !.lib BUF602.lib
TEXT 1064 600 Left 4 ;Transconductance \nResistor (REE)\nand Pre-Emphasis
TEXT 1512 -880 Left 5 ;1st Order RC:\nEmulates finite electrical\n-to-optical response\ntime of LED
TEXT -656 -960 Left 2 !.lib HMC799.lib
TEXT -640 -824 Left 2 !;ac dec 100 1Meg 1G
TEXT -648 -992 Left 2 !.lib BFU590Q.LIB
RECTANGLE Normal 1616 576 1056 128 2
RECTANGLE Normal 2208 -192 1568 -640 2
