Version 4
SHEET 1 4848 2852
WIRE 1584 656 1584 592
WIRE 2112 656 1584 656
WIRE 1584 720 1584 656
WIRE 1712 720 1584 720
WIRE 2208 720 1968 720
WIRE 2336 720 2288 720
WIRE 2576 720 2416 720
WIRE 2848 720 2576 720
WIRE 3232 720 3232 656
WIRE 3760 720 3232 720
WIRE 1584 752 1584 720
WIRE 2576 784 2576 720
WIRE 3232 784 3232 720
WIRE 3360 784 3232 784
WIRE 3856 784 3616 784
WIRE 3984 784 3936 784
WIRE 4224 784 4064 784
WIRE 4496 784 4224 784
WIRE 3232 816 3232 784
WIRE 1584 832 1584 816
WIRE 1712 832 1584 832
WIRE 2048 832 1968 832
WIRE 4224 848 4224 784
WIRE 2048 864 2048 832
WIRE 3232 896 3232 880
WIRE 3360 896 3232 896
WIRE 3696 896 3616 896
WIRE 2576 928 2576 848
WIRE 3696 928 3696 896
WIRE 1376 944 1376 912
WIRE 1568 944 1376 944
WIRE 1712 944 1632 944
WIRE 2112 944 2112 656
WIRE 2112 944 1968 944
WIRE 4224 992 4224 912
WIRE 3152 1008 3152 976
WIRE 3216 1008 3152 1008
WIRE 3360 1008 3280 1008
WIRE 3760 1008 3760 720
WIRE 3760 1008 3616 1008
WIRE 1376 1088 1376 944
WIRE 1376 1216 1376 1168
WIRE 1584 1344 1584 1280
WIRE 2112 1344 1584 1344
WIRE 1584 1408 1584 1344
WIRE 1712 1408 1584 1408
WIRE 2192 1408 1968 1408
WIRE 2320 1408 2272 1408
WIRE 2560 1408 2400 1408
WIRE 2848 1408 2560 1408
WIRE 3232 1408 3232 1344
WIRE 3760 1408 3232 1408
WIRE 1584 1440 1584 1408
WIRE -288 1472 -288 1408
WIRE 2560 1472 2560 1408
WIRE 3232 1472 3232 1408
WIRE 3360 1472 3232 1472
WIRE 3840 1472 3616 1472
WIRE 3968 1472 3920 1472
WIRE 4208 1472 4048 1472
WIRE 4496 1472 4208 1472
WIRE 3232 1504 3232 1472
WIRE 1584 1520 1584 1504
WIRE 1712 1520 1584 1520
WIRE 2048 1520 1968 1520
WIRE 4208 1536 4208 1472
WIRE 2048 1552 2048 1520
WIRE 3232 1584 3232 1568
WIRE 3360 1584 3232 1584
WIRE 3696 1584 3616 1584
WIRE -288 1616 -288 1552
WIRE 2560 1616 2560 1536
WIRE 3696 1616 3696 1584
WIRE 1392 1632 1392 1600
WIRE 1568 1632 1392 1632
WIRE 1712 1632 1632 1632
WIRE 2112 1632 2112 1344
WIRE 2112 1632 1968 1632
WIRE 4208 1680 4208 1600
WIRE 3120 1696 3120 1664
WIRE 3216 1696 3120 1696
WIRE 3360 1696 3280 1696
WIRE 3760 1696 3760 1408
WIRE 3760 1696 3616 1696
WIRE 1392 1808 1392 1632
WIRE 1392 1936 1392 1888
FLAG -288 1616 0
FLAG -288 1408 VCC
FLAG 1392 1936 0
FLAG 1392 1600 RX_LNA
FLAG 1376 1216 0
FLAG 1376 912 TX_LNA
FLAG 1584 592 VCC
FLAG 2048 864 0
FLAG 2848 720 TX_ENV
FLAG 1584 1280 VCC
FLAG 2048 1552 0
FLAG 2848 1408 RX_ENV
FLAG 2576 928 0
FLAG 2560 1616 0
FLAG 3232 656 VCC
FLAG 3696 928 0
FLAG 4496 784 TX_ENV_FAST
FLAG 3232 1344 VCC
FLAG 3696 1616 0
FLAG 4496 1472 RX_ENV_FAST
FLAG 4224 992 0
FLAG 4208 1680 0
FLAG 3152 976 TX_LNA
FLAG 3120 1664 RX_LNA
SYMBOL voltage -288 1456 M0
WINDOW 123 0 0 Left 0
WINDOW 39 0 0 Left 0
SYMATTR InstName V3
SYMATTR Value 3.3
SYMBOL voltage 1392 1792 M0
WINDOW 123 0 0 Left 0
WINDOW 39 0 0 Left 0
SYMATTR InstName V2
SYMATTR Value PWL file=rx_data.txt
SYMBOL voltage 1376 1072 M0
WINDOW 123 0 0 Left 0
WINDOW 39 0 0 Left 0
SYMATTR InstName V1
SYMATTR Value PWL file=tx_data.txt
SYMBOL SpecialFunctions\\LTC5507 1840 832 R0
SYMATTR InstName U1
SYMBOL cap 1568 752 R0
SYMATTR InstName C1
SYMATTR Value 10n
SYMBOL cap 1632 928 R90
WINDOW 0 0 32 VBottom 2
WINDOW 3 32 32 VTop 2
SYMATTR InstName C2
SYMATTR Value 10n
SYMBOL SpecialFunctions\\LTC5507 1840 1520 R0
SYMATTR InstName U2
SYMBOL cap 1568 1440 R0
SYMATTR InstName C3
SYMATTR Value 10n
SYMBOL cap 1632 1616 R90
WINDOW 0 0 32 VBottom 2
WINDOW 3 32 32 VTop 2
SYMATTR InstName C4
SYMATTR Value 10n
SYMBOL res 2304 704 R90
WINDOW 0 0 56 VBottom 2
WINDOW 3 32 56 VTop 2
SYMATTR InstName R1
SYMATTR Value 50
SYMBOL cap 2560 784 R0
SYMATTR InstName C5
SYMATTR Value 0.1µF
SYMBOL res 2288 1392 R90
WINDOW 0 0 56 VBottom 2
WINDOW 3 32 56 VTop 2
SYMATTR InstName R2
SYMATTR Value 50
SYMBOL cap 2544 1472 R0
SYMATTR InstName C6
SYMATTR Value 0.1µF
SYMBOL ind 2320 736 R270
WINDOW 0 32 56 VTop 2
WINDOW 3 5 56 VBottom 2
SYMATTR InstName L1
SYMATTR Value 150µ
SYMBOL ind 2304 1424 R270
WINDOW 0 32 56 VTop 2
WINDOW 3 5 56 VBottom 2
SYMATTR InstName L2
SYMATTR Value 150µ
SYMBOL SpecialFunctions\\LTC5507 3488 896 R0
SYMATTR InstName U3
SYMBOL cap 3216 816 R0
SYMATTR InstName C7
SYMATTR Value 1n
SYMBOL cap 3280 992 R90
WINDOW 0 0 32 VBottom 2
WINDOW 3 32 32 VTop 2
SYMATTR InstName C8
SYMATTR Value 1n
SYMBOL SpecialFunctions\\LTC5507 3488 1584 R0
SYMATTR InstName U4
SYMBOL cap 3216 1504 R0
SYMATTR InstName C9
SYMATTR Value 1n
SYMBOL cap 3280 1680 R90
WINDOW 0 0 32 VBottom 2
WINDOW 3 32 32 VTop 2
SYMATTR InstName C10
SYMATTR Value 1n
SYMBOL res 3952 768 R90
WINDOW 0 0 56 VBottom 2
WINDOW 3 32 56 VTop 2
SYMATTR InstName R3
SYMATTR Value 50
SYMBOL cap 4208 848 R0
SYMATTR InstName C11
SYMATTR Value 0.1µF
SYMBOL res 3936 1456 R90
WINDOW 0 0 56 VBottom 2
WINDOW 3 32 56 VTop 2
SYMATTR InstName R4
SYMATTR Value 50
SYMBOL cap 4192 1536 R0
SYMATTR InstName C12
SYMATTR Value 0.1µF
SYMBOL ind 3968 800 R270
WINDOW 0 32 56 VTop 2
WINDOW 3 5 56 VBottom 2
SYMATTR InstName L3
SYMATTR Value 150µ
SYMBOL ind 3952 1488 R270
WINDOW 0 32 56 VTop 2
WINDOW 3 5 56 VBottom 2
SYMATTR InstName L4
SYMATTR Value 150µ
TEXT -304 1688 Left 2 !.tran 0 0.4m 0
TEXT -304 1720 Left 2 !.model SW SW(Ron=0.1 Roff=100Meg Vt=0.5 Vh=-0.1)
TEXT -312 1784 Left 2 !.param PWM_CYCLES 5
TEXT -304 1832 Left 2 !.lib OPA354.LIB
TEXT -304 1864 Left 2 !.lib ADG779.lib
