Version 4
SHEET 1 4624 2852
WIRE -624 -128 -816 -128
WIRE -464 -128 -544 -128
WIRE -320 -128 -384 -128
WIRE -176 -128 -320 -128
WIRE 48 -128 -176 -128
WIRE 320 -128 48 -128
WIRE -320 -112 -320 -128
WIRE -176 -112 -176 -128
WIRE -816 -32 -816 -128
WIRE -320 -16 -320 -32
WIRE -176 -16 -176 -32
WIRE 48 64 48 -128
WIRE -320 96 -320 64
WIRE -176 96 -176 64
WIRE -816 144 -816 48
WIRE -320 192 -320 160
WIRE -176 192 -176 160
WIRE 48 464 48 256
FLAG 48 464 0
FLAG -816 144 0
FLAG -320 192 0
FLAG -176 192 0
SYMBOL SMATR400H99XDA 48 160 R0
SYMATTR InstName X1
SYMBOL voltage -816 -48 M0
WINDOW 123 24 124 Left 2
WINDOW 39 0 0 Left 0
SYMATTR Value2 AC 1
SYMATTR InstName V3
SYMATTR Value 0
SYMBOL cap -336 96 R0
SYMATTR InstName C1
SYMATTR Value 1000pF
SYMBOL ind -480 -112 R270
WINDOW 0 32 56 VTop 2
WINDOW 3 5 56 VBottom 2
SYMATTR InstName L1
SYMATTR Value 150µH
SYMBOL cap -192 96 R0
SYMATTR InstName C4
SYMATTR Value 56pF
SYMBOL ind -336 -128 R0
SYMATTR InstName L3
SYMATTR Value 5n
SYMBOL ind -192 -128 R0
SYMATTR InstName L4
SYMATTR Value 1n
SYMBOL res -192 -32 R0
SYMATTR InstName R4
SYMATTR Value 100m
SYMBOL res -336 -32 R0
SYMATTR InstName R6
SYMATTR Value 50m
SYMBOL res -640 -112 R270
WINDOW 0 32 56 VTop 2
WINDOW 3 0 56 VBottom 2
SYMATTR InstName Rs
SYMATTR Value 60
TEXT -808 208 Left 2 !.ac dec 1k 1 100Meg
