Version 4
SHEET 1 4624 2852
WIRE -720 -720 -720 -768
WIRE -720 -576 -720 -640
WIRE -1104 -336 -1456 -336
WIRE -1056 -336 -1104 -336
WIRE -944 -336 -992 -336
WIRE -880 -336 -944 -336
WIRE -784 -336 -816 -336
WIRE -1456 -320 -1456 -336
WIRE -720 -288 -720 -352
WIRE -944 -272 -944 -336
WIRE -1456 -224 -1456 -240
WIRE -1104 -208 -1104 -336
WIRE -1072 -208 -1104 -208
WIRE -768 -208 -816 -208
WIRE -1536 -128 -1680 -128
WIRE -1072 -128 -1536 -128
WIRE -784 -128 -784 -336
WIRE -784 -128 -816 -128
WIRE -720 -128 -720 -192
WIRE -720 -128 -784 -128
WIRE -464 -128 -720 -128
WIRE -144 -128 -384 -128
WIRE 160 -128 -144 -128
WIRE 672 -128 160 -128
WIRE 944 -128 672 -128
WIRE -1424 -48 -1680 -48
WIRE -1072 -48 -1424 -48
WIRE -768 -48 -816 -48
WIRE -720 -16 -720 -32
WIRE -944 32 -944 16
WIRE -1536 64 -1536 -128
WIRE -1424 64 -1424 -48
WIRE 672 64 672 -128
WIRE -144 96 -144 -128
WIRE 160 96 160 -128
WIRE -144 192 -144 160
WIRE 160 192 160 160
WIRE -1536 208 -1536 144
WIRE -1424 208 -1424 144
WIRE -1520 464 -1520 400
WIRE 672 464 672 256
WIRE -1520 608 -1520 544
FLAG 672 464 0
FLAG -1520 608 0
FLAG -1520 400 VCC
FLAG -720 -768 VHIGH
FLAG -720 -576 0
FLAG -944 32 0
FLAG -720 -16 0
FLAG -720 -352 VHIGH
FLAG -1680 -48 TX_IN+
FLAG -1680 -128 TX_IN-
FLAG -144 192 0
FLAG -1536 208 0
FLAG -1424 208 0
FLAG -1456 -224 0
FLAG 160 192 0
SYMBOL SMATR400H99XDA 672 160 R0
SYMATTR InstName X1
SYMBOL voltage -1520 448 M0
WINDOW 123 0 0 Left 0
WINDOW 39 0 0 Left 0
SYMATTR InstName V3
SYMATTR Value 3.3
SYMBOL voltage -720 -736 R0
WINDOW 123 0 0 Left 0
WINDOW 39 0 0 Left 0
SYMATTR InstName V4
SYMATTR Value 65.0
SYMBOL nmos -768 -288 R0
SYMATTR InstName Q9
SYMATTR Value IRF7468
SYMBOL nmos -768 -128 R0
SYMATTR InstName Q10
SYMATTR Value IRF7468
SYMBOL cap -816 -352 R90
WINDOW 0 0 32 VBottom 2
WINDOW 3 32 32 VTop 2
SYMATTR InstName C2
SYMATTR Value .1µ
SYMBOL schottky -1056 -320 R270
WINDOW 0 32 32 VTop 2
WINDOW 3 0 32 VBottom 2
SYMATTR InstName D2
SYMATTR Value 1N5819
SYMATTR Description Diode
SYMATTR Type diode
SYMBOL cap -160 96 R0
SYMATTR InstName C1
SYMATTR Value {wc(1000pF, tolb, 1)}
SYMBOL ind -480 -112 R270
WINDOW 0 32 56 VTop 2
WINDOW 3 5 56 VBottom 2
SYMATTR InstName L1
SYMATTR Value {wc(150uH, tola, 0)}
SYMBOL voltage -1536 48 M0
WINDOW 123 0 0 Left 0
WINDOW 39 0 0 Left 0
SYMATTR InstName V6
SYMATTR Value PULSE(0 5 1500u 10n 10n 1.25u 2.5u {PWM_CYCLES})
SYMBOL voltage -1424 48 R0
WINDOW 123 0 0 Left 0
WINDOW 39 0 0 Left 0
SYMATTR InstName V7
SYMATTR Value PULSE(0 5 1501.25u 10n 10n 1.25u 2.5u {PWM_CYCLES})
SYMBOL voltage -1456 -336 R0
WINDOW 123 0 0 Left 0
WINDOW 39 0 0 Left 0
SYMATTR InstName V1
SYMATTR Value 5
SYMBOL PowerProducts\\LTC4444-5 -944 -128 R0
SYMATTR InstName U1
SYMBOL cap 144 96 R0
SYMATTR InstName C4
SYMATTR Value {wc(56pF, tolb, 2)}
TEXT -1536 680 Left 2 !.tran 0 3m 0
TEXT -1536 712 Left 2 !.model SW SW(Ron=0.1 Roff=100Meg Vt=0.5 Vh=-0.1)
TEXT -1544 776 Left 2 !.param PWM_CYCLES 5
TEXT -2104 992 Left 2 !.func wc(nom,tol,index) if(run==numruns,nom,if(binary(run,index),nom*(1+tol),nom*(1-tol)))\n \n.func binary(run,index) floor(run/(2**index))-2*floor(run/(2**(index+1)))
TEXT -2104 1216 Left 2 !.step param run 0 16 1\n.param numruns = 16\n \n.param tola = 0.2\n.param tolb = 0.6
