Version 4
SHEET 1 4624 2852
WIRE -720 -720 -720 -768
WIRE -720 -576 -720 -640
WIRE 320 -128 -112 -128
WIRE 1840 -128 320 -128
WIRE -112 112 -112 -128
WIRE -112 368 -112 192
WIRE -1520 464 -1520 400
WIRE 1040 560 992 560
WIRE 1136 560 1104 560
WIRE 2560 560 2512 560
WIRE -1520 608 -1520 544
WIRE 784 688 752 688
WIRE 896 688 848 688
WIRE 992 688 992 560
WIRE 992 688 976 688
WIRE 1008 688 992 688
WIRE 1024 688 1008 688
WIRE 1136 688 1136 560
WIRE 1136 688 1104 688
WIRE 1200 688 1200 608
WIRE 1200 688 1136 688
WIRE 2304 688 2272 688
WIRE 2416 688 2368 688
WIRE 2512 688 2512 560
WIRE 2512 688 2496 688
WIRE 2528 688 2512 688
WIRE 2608 688 2528 688
WIRE 2752 688 2752 560
WIRE 2752 688 2688 688
WIRE 2816 688 2816 608
WIRE 2816 688 2752 688
WIRE 752 736 752 688
WIRE 2272 736 2272 688
WIRE 320 784 320 -128
WIRE 688 784 688 688
WIRE 1840 784 1840 -128
WIRE 2208 784 2208 688
WIRE 2592 816 2592 800
WIRE 2528 864 2528 688
WIRE 2560 864 2528 864
WIRE 1056 880 1056 864
WIRE 1008 896 1008 688
WIRE 1024 896 1008 896
WIRE 2816 896 2816 688
WIRE 2816 896 2704 896
WIRE 2944 896 2816 896
WIRE 320 912 320 864
WIRE 480 912 320 912
WIRE 688 912 688 864
WIRE 688 912 544 912
WIRE 1200 912 1200 688
WIRE 1200 912 1088 912
WIRE 1328 912 1200 912
WIRE 1840 912 1840 864
WIRE 2000 912 1840 912
WIRE 2208 912 2208 864
WIRE 2208 912 2064 912
WIRE 688 928 688 912
WIRE 1024 928 688 928
WIRE 2208 928 2208 912
WIRE 2560 928 2208 928
WIRE 1056 960 1056 944
WIRE 320 976 320 912
WIRE 688 976 688 928
WIRE 1840 976 1840 912
WIRE 2208 976 2208 928
WIRE 2592 992 2592 976
WIRE 320 1120 320 1056
WIRE 688 1120 688 1056
WIRE 1840 1120 1840 1056
WIRE 2208 1120 2208 1056
FLAG -1520 608 0
FLAG -1520 400 VCC
FLAG -720 -768 VHIGH
FLAG -720 -576 0
FLAG 320 1120 0
FLAG 688 1120 0
FLAG 688 688 VCC
FLAG 1056 960 0
FLAG 1056 864 VCC
FLAG 752 736 0
FLAG 1200 608 RX_LNA_OPA354
FLAG -112 368 0
FLAG 1840 1120 0
FLAG 2208 1120 0
FLAG 2208 688 VCC
FLAG 2592 992 0
FLAG 2592 800 VCC
FLAG 2272 736 0
FLAG 2816 608 RX_LNA_LTC6261
SYMBOL voltage -1520 448 M0
WINDOW 123 0 0 Left 0
WINDOW 39 0 0 Left 0
SYMATTR InstName V3
SYMATTR Value 3.3
SYMBOL voltage -720 -736 R0
WINDOW 123 0 0 Left 0
WINDOW 39 0 0 Left 0
SYMATTR InstName V4
SYMATTR Value 65.0
SYMBOL res 304 960 R0
SYMATTR InstName R7
SYMATTR Value 1k
SYMBOL res 304 768 R0
SYMATTR InstName R8
SYMATTR Value 10k
SYMBOL cap 544 896 R90
WINDOW 0 0 32 VBottom 2
WINDOW 3 32 32 VTop 2
SYMATTR InstName C5
SYMATTR Value 0.1µF
SYMBOL res 672 960 R0
SYMATTR InstName R9
SYMATTR Value 100k
SYMBOL res 672 768 R0
SYMATTR InstName R10
SYMATTR Value 100k
SYMBOL res 1008 704 R270
WINDOW 0 32 56 VTop 2
WINDOW 3 0 56 VBottom 2
SYMATTR InstName R11
SYMATTR Value 100k
SYMBOL res 880 704 R270
WINDOW 0 32 56 VTop 2
WINDOW 3 0 56 VBottom 2
SYMATTR InstName R12
SYMATTR Value 1k
SYMBOL cap 848 672 R90
WINDOW 0 0 32 VBottom 2
WINDOW 3 32 32 VTop 2
SYMATTR InstName C6
SYMATTR Value 10.0µF
SYMBOL cap 1104 544 R90
WINDOW 0 0 32 VBottom 2
WINDOW 3 32 32 VTop 2
SYMATTR InstName C1
SYMATTR Value 12pF
SYMBOL voltage -112 96 M0
WINDOW 123 24 124 Left 2
WINDOW 39 0 0 Left 0
SYMATTR Value2 AC 1
SYMATTR InstName V1
SYMATTR Value 0
SYMBOL Opamps\\opamp2 1056 848 R0
SYMATTR InstName U1
SYMATTR Value OPA354
SYMBOL res 1824 960 R0
SYMATTR InstName R1
SYMATTR Value 1k
SYMBOL res 1824 768 R0
SYMATTR InstName R2
SYMATTR Value 10k
SYMBOL cap 2064 896 R90
WINDOW 0 0 32 VBottom 2
WINDOW 3 32 32 VTop 2
SYMATTR InstName C2
SYMATTR Value 0.1µF
SYMBOL res 2192 960 R0
SYMATTR InstName R3
SYMATTR Value 100k
SYMBOL res 2192 768 R0
SYMATTR InstName R4
SYMATTR Value 100k
SYMBOL res 2592 704 R270
WINDOW 0 32 56 VTop 2
WINDOW 3 0 56 VBottom 2
SYMATTR InstName R5
SYMATTR Value 100k
SYMBOL res 2400 704 R270
WINDOW 0 32 56 VTop 2
WINDOW 3 0 56 VBottom 2
SYMATTR InstName R6
SYMATTR Value 1k
SYMBOL cap 2368 672 R90
WINDOW 0 0 32 VBottom 2
WINDOW 3 32 32 VTop 2
SYMATTR InstName C3
SYMATTR Value 10.0µF
SYMBOL cap 2624 544 R90
WINDOW 0 0 32 VBottom 2
WINDOW 3 32 32 VTop 2
SYMATTR InstName C4
SYMATTR Value 12pF
SYMBOL Opamps\\LTC6261 2592 896 R0
SYMATTR InstName U2
TEXT -1536 680 Left 2 !;tran 0 3m 0
TEXT -1536 712 Left 2 !.model SW SW(Ron=0.1 Roff=100Meg Vt=0.5 Vh=-0.1)
TEXT -1544 776 Left 2 !.param PWM_CYCLES 5
TEXT -1536 824 Left 2 !.lib OPA354.LIB
TEXT -296 464 Left 2 !.ac dec 100 1 100Meg
TEXT -296 504 Left 2 !.lib OPA354.LIB
