Version 4
SHEET 1 4624 2852
WIRE -720 -720 -720 -768
WIRE -720 -576 -720 -640
WIRE 320 -128 -112 -128
WIRE -112 112 -112 -128
WIRE -112 368 -112 192
WIRE -1520 464 -1520 400
WIRE 1040 560 992 560
WIRE 1136 560 1104 560
WIRE -1520 608 -1520 544
WIRE 784 688 752 688
WIRE 896 688 848 688
WIRE 992 688 992 560
WIRE 992 688 976 688
WIRE 1008 688 992 688
WIRE 1024 688 1008 688
WIRE 1136 688 1136 560
WIRE 1136 688 1104 688
WIRE 1200 688 1200 608
WIRE 1200 688 1136 688
WIRE 752 736 752 688
WIRE 320 784 320 -128
WIRE 688 784 688 688
WIRE 1056 880 1056 864
WIRE 1008 896 1008 688
WIRE 1024 896 1008 896
WIRE 1376 896 1376 768
WIRE 320 912 320 864
WIRE 480 912 320 912
WIRE 688 912 688 864
WIRE 688 912 544 912
WIRE 1200 912 1200 688
WIRE 1200 912 1088 912
WIRE 1328 912 1200 912
WIRE 688 928 688 912
WIRE 1024 928 688 928
WIRE 1056 960 1056 944
WIRE 1328 960 1280 960
WIRE 320 976 320 912
WIRE 688 976 688 928
WIRE 1280 992 1280 960
WIRE 1376 1008 1376 976
WIRE 320 1120 320 1056
WIRE 688 1120 688 1056
WIRE 1280 1120 1280 1072
WIRE 1184 1536 1040 1536
WIRE 1312 1536 1264 1536
WIRE 1376 1536 1312 1536
WIRE 1568 1536 1456 1536
WIRE 1040 1568 1040 1536
WIRE 1648 1680 1408 1680
WIRE 1040 1696 1040 1648
WIRE 1408 1696 1408 1680
WIRE 1984 1696 1840 1696
WIRE 1568 1728 1568 1536
WIRE 1792 1728 1568 1728
WIRE 1840 1728 1840 1696
WIRE 1312 1744 1312 1536
WIRE 1376 1744 1312 1744
WIRE 1568 1744 1568 1728
WIRE 1568 1744 1536 1744
WIRE 1792 1744 1792 1728
WIRE 1232 1776 1200 1776
WIRE 1376 1776 1296 1776
WIRE 1376 1808 1312 1808
WIRE 1568 1808 1536 1808
WIRE 1568 1824 1568 1808
WIRE 1792 1824 1792 1792
WIRE 1792 1824 1568 1824
WIRE 1840 1856 1840 1808
WIRE 1408 1888 1408 1856
WIRE 1216 1968 1056 1968
WIRE 1312 1968 1312 1808
WIRE 1312 1968 1296 1968
WIRE 1392 1968 1312 1968
WIRE 1568 1968 1568 1824
WIRE 1568 1968 1472 1968
FLAG -1520 608 0
FLAG -1520 400 VCC
FLAG -720 -768 VHIGH
FLAG -720 -576 0
FLAG 320 1120 0
FLAG 688 1120 0
FLAG 688 688 VCC
FLAG 1056 960 0
FLAG 1056 864 VCC
FLAG 752 736 0
FLAG 1376 768 TX_PRE_LIA
FLAG 1376 1008 0
FLAG 1280 1120 0
FLAG 1200 608 TX_LNA
FLAG 1408 1888 0
FLAG 1200 1776 0
FLAG 1648 1680 VCC
FLAG 1840 1856 0
FLAG 1984 1696 OUT_DIFF_TX
FLAG 1056 1968 TX_LNA
FLAG 1040 1696 0
FLAG -112 368 0
SYMBOL voltage -1520 448 M0
WINDOW 123 0 0 Left 0
WINDOW 39 0 0 Left 0
SYMATTR InstName V3
SYMATTR Value 3.3
SYMBOL voltage -720 -736 R0
WINDOW 123 0 0 Left 0
WINDOW 39 0 0 Left 0
SYMATTR InstName V4
SYMATTR Value 65.0
SYMBOL res 304 960 R0
SYMATTR InstName R7
SYMATTR Value 1k
SYMBOL res 304 768 R0
SYMATTR InstName R8
SYMATTR Value 10k
SYMBOL cap 544 896 R90
WINDOW 0 0 32 VBottom 2
WINDOW 3 32 32 VTop 2
SYMATTR InstName C5
SYMATTR Value 0.01µF
SYMBOL res 672 960 R0
SYMATTR InstName R9
SYMATTR Value 100k
SYMBOL res 672 768 R0
SYMATTR InstName R10
SYMATTR Value 100k
SYMBOL res 1008 704 R270
WINDOW 0 32 56 VTop 2
WINDOW 3 0 56 VBottom 2
SYMATTR InstName R11
SYMATTR Value 100k
SYMBOL res 880 704 R270
WINDOW 0 32 56 VTop 2
WINDOW 3 0 56 VBottom 2
SYMATTR InstName R12
SYMATTR Value 1k
SYMBOL cap 848 672 R90
WINDOW 0 0 32 VBottom 2
WINDOW 3 32 32 VTop 2
SYMATTR InstName C6
SYMATTR Value 1µF
SYMBOL e 1376 880 R0
SYMATTR InstName E2
SYMATTR Value 1.0
SYMBOL voltage 1280 976 M0
WINDOW 123 0 0 Left 0
WINDOW 39 0 0 Left 0
SYMATTR InstName V5
SYMATTR Value 1.65
SYMBOL LTC6362 1440 1776 R0
SYMATTR InstName U3
SYMBOL res 1472 1520 R90
WINDOW 0 0 56 VBottom 2
WINDOW 3 32 56 VTop 2
SYMATTR InstName R21
SYMATTR Value 4.99k
SYMBOL res 1488 1952 R90
WINDOW 0 0 56 VBottom 2
WINDOW 3 32 56 VTop 2
SYMATTR InstName R22
SYMATTR Value 4.99k
SYMBOL res 1312 1952 R90
WINDOW 0 0 56 VBottom 2
WINDOW 3 32 56 VTop 2
SYMATTR InstName R23
SYMATTR Value 10k
SYMBOL cap 1296 1760 R90
WINDOW 0 0 32 VBottom 2
WINDOW 3 32 32 VTop 2
SYMATTR InstName C9
SYMATTR Value .1µ
SYMBOL e 1840 1712 R0
SYMATTR InstName E5
SYMATTR Value 1.0
SYMBOL res 1280 1520 R90
WINDOW 0 0 56 VBottom 2
WINDOW 3 32 56 VTop 2
SYMATTR InstName R20
SYMATTR Value 10k
SYMBOL voltage 1040 1552 M0
WINDOW 123 0 0 Left 0
WINDOW 39 0 0 Left 0
SYMATTR InstName V9
SYMATTR Value 1.65
SYMBOL cap 1104 544 R90
WINDOW 0 0 32 VBottom 2
WINDOW 3 32 32 VTop 2
SYMATTR InstName C1
SYMATTR Value 1pF
SYMBOL voltage -112 96 M0
WINDOW 123 24 124 Left 2
WINDOW 39 0 0 Left 0
SYMATTR Value2 AC 1
SYMATTR InstName V1
SYMATTR Value 0
SYMBOL Opamps\\LTC6246 1056 912 R0
SYMATTR InstName U1
TEXT -1536 680 Left 2 !;tran 0 3m 0
TEXT -1536 712 Left 2 !.model SW SW(Ron=0.1 Roff=100Meg Vt=0.5 Vh=-0.1)
TEXT -1544 776 Left 2 !.param PWM_CYCLES 5
TEXT -1536 824 Left 2 !.lib OPA354.LIB
TEXT -296 464 Left 2 !.ac dec 100 1 100Meg
