Version 4
SHEET 1 1752 680
WIRE 352 -288 352 -336
WIRE 352 -160 352 -208
WIRE -256 -144 -320 -144
WIRE -64 -144 -176 -144
WIRE -64 -32 -64 -144
WIRE -16 -32 -64 -32
WIRE 176 -32 48 -32
WIRE 272 -32 176 -32
WIRE 496 -32 272 -32
WIRE 944 -32 496 -32
WIRE 1008 -32 944 -32
WIRE 1200 -32 1088 -32
WIRE 272 32 272 -32
WIRE -320 80 -320 -144
WIRE 1280 112 1040 112
WIRE 1040 128 1040 112
WIRE 1616 128 1472 128
WIRE 272 144 272 112
WIRE 496 144 496 -32
WIRE 176 160 176 -32
WIRE 1200 160 1200 -32
WIRE 1424 160 1200 160
WIRE 1472 160 1472 128
WIRE 944 176 944 -32
WIRE 1008 176 944 176
WIRE 1200 176 1200 160
WIRE 1200 176 1168 176
WIRE 1424 176 1424 160
WIRE 864 208 832 208
WIRE 1008 208 928 208
WIRE 1008 240 944 240
WIRE 1200 240 1168 240
WIRE 1200 256 1200 240
WIRE 1424 256 1424 224
WIRE 1424 256 1200 256
WIRE 1472 288 1472 240
WIRE 1040 320 1040 288
WIRE -320 352 -320 160
WIRE 176 352 176 224
WIRE 272 352 272 224
WIRE 496 352 496 224
WIRE 848 400 768 400
WIRE 944 400 944 240
WIRE 944 400 928 400
WIRE 1024 400 944 400
WIRE 1200 400 1200 256
WIRE 1200 400 1104 400
FLAG 176 352 0
FLAG 272 352 0
FLAG -320 352 0
FLAG 496 352 0
FLAG 768 400 0
FLAG 1040 320 0
FLAG 832 208 0
FLAG 1280 112 VCC
FLAG 1472 288 0
FLAG 1616 128 OUT_DIFF
FLAG 352 -160 0
FLAG 352 -336 VCC
SYMBOL ind 256 128 R0
SYMATTR InstName L1
SYMATTR Value 150µ
SYMBOL cap 160 160 R0
SYMATTR InstName C1
SYMATTR Value 1056pF
SYMBOL res 256 16 R0
SYMATTR InstName R1
SYMATTR Value 5
SYMBOL cap 48 -48 R90
WINDOW 0 0 32 VBottom 2
WINDOW 3 32 32 VTop 2
SYMATTR InstName C2
SYMATTR Value 10µ
SYMBOL res -160 -160 R90
WINDOW 0 0 56 VBottom 2
WINDOW 3 32 56 VTop 2
SYMATTR InstName R4
SYMATTR Value 100k
SYMBOL voltage -320 64 R0
WINDOW 123 24 124 Left 2
WINDOW 39 0 0 Left 0
SYMATTR Value2 AC 1
SYMATTR InstName V1
SYMATTR Value 0
SYMBOL res 480 128 R0
SYMATTR InstName R3
SYMATTR Value 10k
SYMBOL LTC6362 1072 208 R0
SYMATTR InstName U1
SYMBOL res 1104 -48 R90
WINDOW 0 0 56 VBottom 2
WINDOW 3 32 56 VTop 2
SYMATTR InstName R6
SYMATTR Value 1Meg
SYMBOL res 1120 384 R90
WINDOW 0 0 56 VBottom 2
WINDOW 3 32 56 VTop 2
SYMATTR InstName R7
SYMATTR Value 1Meg
SYMBOL res 944 384 R90
WINDOW 0 0 56 VBottom 2
WINDOW 3 32 56 VTop 2
SYMATTR InstName R8
SYMATTR Value 10k
SYMBOL cap 928 192 R90
WINDOW 0 0 32 VBottom 2
WINDOW 3 32 32 VTop 2
SYMATTR InstName C3
SYMATTR Value .1µ
SYMBOL e 1472 144 R0
SYMATTR InstName E1
SYMATTR Value 1.0
SYMBOL voltage 352 -304 R0
WINDOW 123 0 0 Left 0
WINDOW 39 0 0 Left 0
SYMATTR InstName V2
SYMATTR Value 3.3
TEXT -336 -240 Left 2 !.ac dec 1k 1 10Meg
