Version 4
SHEET 1 2236 1224
WIRE -1328 -1408 -1552 -1408
WIRE -416 -1408 -1248 -1408
WIRE -304 -1408 -352 -1408
WIRE -1552 -1296 -1552 -1408
WIRE -1056 -1296 -1552 -1296
WIRE -864 -1296 -1008 -1296
WIRE -416 -1296 -784 -1296
WIRE -304 -1296 -352 -1296
WIRE -1008 -1168 -1008 -1296
WIRE -1056 -1152 -1056 -1296
WIRE -1552 -1136 -1552 -1296
WIRE 224 -1136 48 -1136
WIRE 672 -1136 304 -1136
WIRE 800 -1136 736 -1136
WIRE 48 -976 48 -1136
WIRE -1552 -960 -1552 -1056
WIRE -1056 -960 -1056 -1104
WIRE -1056 -960 -1552 -960
WIRE -1008 -960 -1008 -1088
WIRE -1008 -960 -1056 -960
WIRE -992 -736 -1152 -736
WIRE -1552 -704 -1552 -960
WIRE -1152 -688 -1152 -736
WIRE -320 -688 -352 -688
WIRE 336 -688 304 -688
WIRE 960 -688 928 -688
WIRE -1152 -592 -1152 -608
WIRE -1040 -592 -1152 -592
WIRE -784 -592 -816 -592
WIRE -592 -592 -624 -592
WIRE -352 -592 -352 -688
WIRE -352 -592 -480 -592
WIRE -224 -592 -352 -592
WIRE 304 -592 304 -688
WIRE 304 -592 176 -592
WIRE 432 -592 304 -592
WIRE 928 -592 928 -688
WIRE 928 -592 864 -592
WIRE 992 -592 928 -592
WIRE -1040 -576 -1040 -592
WIRE -1152 -528 -1152 -592
WIRE -1104 -528 -1152 -528
WIRE -1840 -512 -1840 -608
WIRE -1552 -512 -1552 -624
WIRE -1152 -480 -1152 -528
WIRE -816 -480 -816 -592
WIRE -624 -480 -624 -592
WIRE -1040 -432 -1040 -480
WIRE -1040 -432 -1088 -432
WIRE -880 -432 -1040 -432
WIRE -688 -432 -880 -432
WIRE -480 -432 -480 -592
WIRE -224 -432 -224 -592
WIRE 176 -432 176 -592
WIRE 432 -432 432 -592
WIRE -1152 -352 -1152 -384
WIRE 864 -336 864 -592
WIRE -1840 -320 -1840 -432
WIRE 176 -288 176 -352
WIRE 800 -288 176 -288
WIRE -480 -256 -480 -352
WIRE 80 -256 -480 -256
WIRE 992 -256 992 -592
WIRE -1152 -224 -1152 -288
WIRE -816 -224 -816 -384
WIRE 432 -208 432 -352
WIRE 928 -208 432 -208
WIRE -224 -192 -224 -352
WIRE 528 -192 -224 -192
WIRE -480 -144 -480 -256
WIRE -224 -144 -224 -192
WIRE 176 -144 176 -288
WIRE 432 -144 432 -208
WIRE -816 -96 -816 -144
WIRE -816 -96 -880 -96
WIRE -544 -96 -816 -96
WIRE 0 -96 -160 -96
WIRE 80 -96 80 -256
WIRE 112 -96 80 -96
WIRE 528 -96 528 -192
WIRE 528 -96 496 -96
WIRE -1632 -48 -1632 -160
WIRE 864 -16 864 -240
WIRE 1216 -16 864 -16
WIRE -624 0 -624 -384
WIRE 992 32 992 -160
WIRE 1216 32 992 32
WIRE -480 64 -480 -48
WIRE -352 64 -480 64
WIRE -224 64 -224 -48
WIRE -224 64 -352 64
WIRE 176 64 176 -48
WIRE 304 64 176 64
WIRE 432 64 432 -48
WIRE 432 64 304 64
WIRE -1632 112 -1632 32
WIRE -1488 112 -1632 112
WIRE -624 160 -624 80
WIRE -624 160 -880 160
WIRE 0 160 0 -96
WIRE 0 160 -624 160
WIRE 864 160 864 -16
WIRE 992 160 992 32
WIRE -1488 176 -1488 112
WIRE -1632 224 -1632 112
WIRE -1552 224 -1632 224
WIRE -1632 304 -1632 224
WIRE -352 304 -352 64
WIRE 304 304 304 64
WIRE -1488 352 -1488 272
WIRE -1488 352 -1568 352
WIRE -416 352 -1488 352
WIRE 240 352 -416 352
WIRE -352 448 -352 400
WIRE 304 448 304 400
WIRE -1632 464 -1632 400
WIRE -1632 608 -1632 528
WIRE -352 608 -352 528
WIRE 304 608 304 528
WIRE 864 608 864 240
WIRE 992 608 992 240
WIRE 0 896 -240 896
WIRE 160 896 48 896
WIRE 256 896 160 896
WIRE 432 896 336 896
WIRE 544 896 432 896
WIRE 672 896 544 896
WIRE 864 896 736 896
WIRE 1056 896 912 896
WIRE 432 960 432 896
WIRE 0 976 0 896
WIRE 160 976 160 896
WIRE 544 976 544 896
WIRE 864 976 864 896
WIRE 48 992 48 896
WIRE 912 992 912 896
WIRE 0 1120 0 1056
WIRE 48 1120 48 1040
WIRE 160 1120 160 1040
WIRE 432 1120 432 1040
WIRE 544 1120 544 1040
WIRE 864 1120 864 1056
WIRE 912 1120 912 1040
WIRE 1056 1120 912 1120
FLAG -880 -96 IN+
IOPIN -880 -96 In
FLAG -880 160 IN-
IOPIN -880 160 In
FLAG -352 608 0
FLAG 1216 32 OUT-
IOPIN 1216 32 Out
FLAG 1216 -16 OUT+
IOPIN 1216 -16 Out
FLAG -1632 608 0
FLAG -1632 -160 VCC
IOPIN -1632 -160 BiDir
FLAG -320 -688 VCC
IOPIN -320 -688 BiDir
FLAG -1552 -512 0
FLAG -1840 -320 0
FLAG -1840 -608 VCC
FLAG -304 -1408 IN+
IOPIN -304 -1408 In
FLAG 304 608 0
FLAG 336 -688 VCC
IOPIN 336 -688 BiDir
FLAG 992 608 0
FLAG 864 608 0
FLAG 960 -688 VCC
IOPIN 960 -688 BiDir
FLAG -784 -592 VCC
IOPIN -784 -592 BiDir
FLAG -992 -736 VCC
IOPIN -992 -736 BiDir
FLAG -1152 -224 0
FLAG -592 -592 VCC
IOPIN -592 -592 BiDir
FLAG 48 -976 0
FLAG 800 -1136 IN-
IOPIN 800 -1136 In
FLAG 864 1120 0
FLAG 1056 896 IN+
IOPIN 1056 896 In
FLAG 1056 1120 IN-
IOPIN 1056 1120 In
FLAG 544 1120 0
FLAG 432 1120 0
FLAG 160 1120 0
FLAG 0 1120 0
FLAG 48 1120 0
FLAG -240 896 LEVEL_DET
SYMBOL npn -544 -144 R0
SYMATTR InstName Q1
SYMBOL npn -160 -144 M0
SYMATTR InstName Q2
SYMBOL res -496 -448 R0
SYMATTR InstName R1
SYMATTR Value 250
SYMBOL res -240 -448 R0
SYMATTR InstName R2
SYMATTR Value 250
SYMBOL npn -416 304 R0
SYMATTR InstName Q3
SYMBOL res -368 432 R0
SYMATTR InstName R3
SYMATTR Value 100
SYMBOL npn -1568 304 M0
SYMATTR InstName Q4
SYMBOL References\\LT1004-1.2 -1632 496 R0
SYMATTR InstName U1
SYMBOL npn -1552 176 R0
SYMATTR InstName Q5
SYMBOL res -1648 -64 R0
SYMATTR InstName R4
SYMATTR Value 5k
SYMBOL voltage -1552 -720 R0
WINDOW 123 0 0 Left 0
WINDOW 39 0 0 Left 0
SYMATTR InstName V1
SYMATTR Value 2.5
SYMBOL voltage -1840 -528 R0
WINDOW 123 0 0 Left 0
WINDOW 39 0 0 Left 0
SYMATTR InstName V2
SYMATTR Value 5
SYMBOL voltage -1552 -1152 R0
WINDOW 123 0 0 Left 0
WINDOW 39 0 0 Left 0
SYMATTR InstName V3
SYMATTR Value PULSE(-10u 10u 0 100p 100p 2.5n 5n)
SYMBOL e -1008 -1184 R0
SYMATTR InstName E1
SYMATTR Value -1
SYMBOL npn 112 -144 R0
SYMATTR InstName Q6
SYMBOL npn 496 -144 M0
SYMATTR InstName Q7
SYMBOL res 160 -448 R0
SYMATTR InstName R5
SYMATTR Value 250
SYMBOL res 416 -448 R0
SYMATTR InstName R6
SYMATTR Value 250
SYMBOL npn 240 304 R0
SYMATTR InstName Q8
SYMBOL res 288 432 R0
SYMATTR InstName R7
SYMATTR Value 100
SYMBOL npn 928 -256 R0
SYMATTR InstName Q9
SYMBOL npn 800 -336 R0
SYMATTR InstName Q10
SYMBOL res 848 144 R0
SYMATTR InstName R8
SYMATTR Value 50.0
SYMBOL res 976 144 R0
SYMATTR InstName R9
SYMATTR Value 50.0
SYMBOL res -832 -240 R0
SYMATTR InstName R10
SYMATTR Value 200.0
SYMBOL res -640 -16 R0
SYMATTR InstName R11
SYMATTR Value 200.0
SYMBOL npn -880 -480 R0
SYMATTR InstName Q11
SYMBOL npn -1088 -480 M0
SYMATTR InstName Q12
SYMBOL npn -1104 -576 R0
SYMATTR InstName Q13
SYMBOL res -1168 -704 R0
SYMATTR InstName R12
SYMATTR Value 5k
SYMBOL cap -416 -1392 R270
WINDOW 0 32 32 VTop 2
WINDOW 3 0 32 VBottom 2
SYMATTR InstName C1
SYMATTR Value 10n
SYMBOL cap -416 -1280 R270
WINDOW 0 32 32 VTop 2
WINDOW 3 0 32 VBottom 2
SYMATTR InstName C2
SYMATTR Value 10n
SYMBOL References\\LT1009 -1152 -320 R0
SYMATTR InstName U2
SYMBOL npn -688 -480 R0
SYMATTR InstName Q14
SYMBOL res -1344 -1392 R270
WINDOW 0 32 56 VTop 2
WINDOW 3 0 56 VBottom 2
SYMATTR InstName R13
SYMATTR Value 50.0
SYMBOL res -880 -1280 R270
WINDOW 0 32 56 VTop 2
WINDOW 3 0 56 VBottom 2
SYMATTR InstName R14
SYMATTR Value 50.0
SYMBOL cap 672 -1120 R270
WINDOW 0 32 32 VTop 2
WINDOW 3 0 32 VBottom 2
SYMATTR InstName C3
SYMATTR Value 10n
SYMBOL res 208 -1120 R270
WINDOW 0 32 56 VTop 2
WINDOW 3 0 56 VBottom 2
SYMATTR InstName R15
SYMATTR Value 50.0
SYMBOL e 864 960 M0
SYMATTR InstName E2
SYMATTR Value 22.75k
SYMBOL cap 528 976 R0
SYMATTR InstName C4
SYMATTR Value 10pF
SYMBOL res 448 944 M0
SYMATTR InstName R16
SYMATTR Value 1k
SYMBOL diode 736 880 R90
WINDOW 0 0 32 VBottom 2
WINDOW 3 32 32 VTop 2
SYMATTR InstName D1
SYMBOL cap 144 976 R0
SYMATTR InstName C5
SYMATTR Value 10p
SYMBOL res 240 912 R270
WINDOW 0 32 56 VTop 2
WINDOW 3 0 56 VBottom 2
SYMATTR InstName R17
SYMATTR Value 500
SYMBOL e 0 960 M0
SYMATTR InstName E3
SYMATTR Value 1.0
TEXT -1872 632 Left 2 !.tran 0 100n 0
