Version 4
SHEET 1 1792 740
WIRE 144 -96 -656 -96
WIRE 352 -96 240 -96
WIRE 448 -96 352 -96
WIRE 624 -96 544 -96
WIRE 736 -96 624 -96
WIRE 928 -96 832 -96
WIRE 1008 -96 928 -96
WIRE 1200 -96 1104 -96
WIRE 1392 -96 1200 -96
WIRE 1712 -96 1488 -96
WIRE -656 0 -656 -96
WIRE 1712 0 1712 -96
WIRE 352 48 352 -96
WIRE 624 48 624 -96
WIRE 928 48 928 -96
WIRE 1200 48 1200 -96
WIRE -656 176 -656 80
WIRE 1712 256 1712 80
WIRE 352 304 352 144
WIRE 624 304 624 144
WIRE 928 304 928 144
WIRE 1200 304 1200 144
FLAG -656 176 0
FLAG 1712 256 0
FLAG 1200 304 0
FLAG 928 304 0
FLAG 624 304 0
FLAG 352 304 0
SYMBOL voltage -656 -16 M0
WINDOW 123 24 124 Left 2
WINDOW 39 24 152 Left 2
SYMATTR Value2 AC 1
SYMATTR SpiceLine Rser={Z0}
SYMATTR InstName Vs
SYMATTR Value PWL file=PBRS_Sequence_400ps.txt
SYMBOL res 1696 -16 R0
SYMATTR InstName RL
SYMATTR Value {Z0}
SYMBOL LQP03HQ1N0W02D 192 -96 R0
SYMATTR InstName X1
SYMBOL LQP03HQ3N9B02D 1056 -96 R0
SYMATTR InstName X4
SYMBOL LQP03HQ10NH02D 1440 -96 R0
SYMATTR InstName X5
SYMBOL GJM0335C1E1R0WB01D 352 96 R90
SYMATTR InstName X6
SYMBOL GJM0335C1E1R0WB01D 624 96 R90
SYMATTR InstName X7
SYMBOL GRM0335C1H1R2WA01D 928 96 R90
SYMATTR InstName X8
SYMBOL GJM1555C1H1R8WB01D 1200 96 R90
SYMATTR InstName X9
SYMBOL LQP03HQ1N8B02D 496 -96 R0
SYMATTR InstName X2
SYMBOL LQP03HQ2N7B02D 784 -96 R0
SYMATTR InstName X3
TEXT -72 -320 Left 2 !.net  I(RL) VS
TEXT -72 -360 Left 2 !.param Z0=50
TEXT -72 -272 Left 2 !.ac dec 1k 1 10G
TEXT -72 -224 Left 2 !;tran 0 100n 0
TEXT -88 -560 Left 2 !.step param run 1 100 1
