Version 4
SHEET 1 5604 2708
WIRE 1888 -608 1712 -608
WIRE 2048 -608 1888 -608
WIRE 1120 -512 1120 -560
WIRE 1664 -512 1120 -512
WIRE 1712 -496 1712 -608
WIRE 1888 -496 1888 -608
WIRE 1664 -480 1664 -512
WIRE 1120 -464 1120 -512
WIRE 1120 -352 1120 -384
WIRE 1664 -352 1664 -432
WIRE 1664 -352 1120 -352
WIRE 1120 -336 1120 -352
WIRE 1712 -272 1712 -416
WIRE 1888 -272 1888 -416
WIRE 1120 -240 1120 -272
WIRE 1120 -144 1120 -176
WIRE -608 -80 -608 -112
WIRE -432 -80 -432 -112
WIRE -608 32 -608 0
WIRE -432 32 -432 0
WIRE 1120 32 1120 -80
WIRE 720 80 608 80
WIRE 912 80 784 80
WIRE 1056 80 912 80
WIRE 3232 80 3232 16
WIRE 3232 80 3200 80
WIRE 2048 112 2048 -608
WIRE 2272 112 2048 112
WIRE 2464 112 2272 112
WIRE 2768 112 2464 112
WIRE 2944 112 2832 112
WIRE 3312 112 3200 112
WIRE 3456 112 3376 112
WIRE 3584 112 3456 112
WIRE 3456 128 3456 112
WIRE 3232 144 3200 144
WIRE 1120 160 1120 128
WIRE 2272 224 2272 112
WIRE 2464 240 2464 112
WIRE 3232 240 3232 144
WIRE 3456 240 3456 208
WIRE 1120 272 1120 240
WIRE 320 336 288 336
WIRE 128 368 -112 368
WIRE 288 368 288 336
WIRE 288 368 208 368
WIRE 2272 448 2272 304
WIRE 2464 448 2464 304
WIRE 320 464 288 464
WIRE -112 496 -112 368
WIRE 64 496 -112 496
WIRE 128 496 112 496
WIRE 288 496 288 464
WIRE 288 496 208 496
WIRE 912 576 912 80
WIRE -112 592 -112 496
WIRE 112 640 112 496
WIRE 64 656 64 496
WIRE 912 688 912 656
WIRE 912 688 736 688
WIRE 912 720 912 688
WIRE 736 752 736 688
WIRE 1904 768 1728 768
WIRE 2048 768 2048 112
WIRE 2048 768 1904 768
WIRE -112 784 -112 672
WIRE 64 784 64 704
WIRE 112 784 112 720
WIRE 1120 880 1120 832
WIRE 1680 880 1120 880
WIRE 1728 880 1728 768
WIRE 1904 880 1904 768
WIRE 1680 896 1680 880
WIRE 1120 928 1120 880
WIRE 736 960 736 832
WIRE 1120 1024 1120 1008
WIRE 1680 1024 1680 944
WIRE 1680 1024 1120 1024
WIRE 1120 1056 1120 1024
WIRE 1728 1104 1728 960
WIRE 1904 1104 1904 960
WIRE 1120 1152 1120 1120
WIRE 1120 1248 1120 1216
WIRE 1120 1424 1120 1312
WIRE 736 1472 608 1472
WIRE 912 1472 912 800
WIRE 912 1472 800 1472
WIRE 1056 1472 912 1472
WIRE 1120 1536 1120 1520
WIRE 1120 1648 1120 1616
FLAG -112 784 0
FLAG 320 336 VIN+
FLAG 1712 -272 0
FLAG 1120 272 0
FLAG 1120 -560 VLED
FLAG 1888 -272 0
FLAG 1120 1648 0
FLAG 1120 832 VLED
FLAG 64 784 0
FLAG 112 784 0
FLAG 320 464 VIN-
FLAG -432 32 0
FLAG -432 -112 VLED
FLAG 736 960 0
FLAG 1728 1104 0
FLAG 1904 1104 0
FLAG 3232 240 0
FLAG 3232 16 VCC
FLAG 3456 240 0
FLAG 608 80 VIN+
FLAG 608 1472 VIN-
FLAG 2272 448 0
FLAG 2464 448 0
FLAG 3584 112 OUT
FLAG -608 32 0
FLAG -608 -112 VCC
SYMBOL voltage -112 576 M0
WINDOW 123 24 124 Left 2
WINDOW 39 0 0 Left 0
SYMATTR Value2 AC 1
SYMATTR InstName V2
SYMATTR Value SINE(0 0.316 50Meg)
SYMBOL Infineon_RF_NPN_3Pin 1056 32 R0
SYMATTR InstName U4
SYMATTR Value BFU590Q
SYMBOL LED 1104 -336 R0
SYMATTR InstName D1
SYMATTR Value LUW-W5AP
SYMATTR Description Diode
SYMATTR Type diode
SYMBOL res 1872 -512 R0
SYMATTR InstName Rchannel1
SYMATTR Value 100Meg
SYMBOL res 1104 144 R0
SYMATTR InstName REE
SYMATTR Value 5
SYMBOL res 1104 -480 R0
SYMATTR InstName R16
SYMATTR Value 1µ
SYMBOL LED 1104 -240 R0
SYMATTR InstName D2
SYMATTR Value LUW-W5AP
SYMATTR Description Diode
SYMATTR Type diode
SYMBOL LED 1104 -144 R0
SYMATTR InstName D3
SYMATTR Value LUW-W5AP
SYMATTR Description Diode
SYMATTR Type diode
SYMBOL res 112 352 M90
WINDOW 0 0 56 VBottom 2
WINDOW 3 32 56 VTop 2
SYMATTR InstName R1
SYMATTR Value 49.9
SYMBOL Infineon_RF_NPN_3Pin 1056 1424 R0
SYMATTR InstName U1
SYMATTR Value BFU590Q
SYMBOL LED 1104 1056 R0
SYMATTR InstName D4
SYMATTR Value LUW-W5AP
SYMATTR Description Diode
SYMATTR Type diode
SYMBOL res 1104 1520 R0
SYMATTR InstName REE1
SYMATTR Value 5
SYMBOL res 1104 912 R0
SYMATTR InstName R2
SYMATTR Value 1µ
SYMBOL LED 1104 1152 R0
SYMATTR InstName D5
SYMATTR Value LUW-W5AP
SYMATTR Description Diode
SYMATTR Type diode
SYMBOL LED 1104 1248 R0
SYMATTR InstName D6
SYMATTR Value LUW-W5AP
SYMATTR Description Diode
SYMATTR Type diode
SYMBOL e 112 624 R0
SYMATTR InstName E2
SYMATTR Value -1
SYMBOL res 112 480 M90
WINDOW 0 0 56 VBottom 2
WINDOW 3 32 56 VTop 2
SYMATTR InstName R3
SYMATTR Value 49.9
SYMBOL voltage -432 -96 M0
WINDOW 123 0 0 Left 0
WINDOW 39 0 0 Left 0
SYMATTR InstName V1
SYMATTR Value 18
SYMBOL voltage 736 736 M0
WINDOW 123 0 0 Left 0
WINDOW 39 0 0 Left 0
SYMATTR InstName V3
SYMATTR Value 1
SYMBOL res 896 560 R0
SYMATTR InstName R4
SYMATTR Value 1k
SYMBOL res 896 704 R0
SYMATTR InstName R5
SYMATTR Value 1k
SYMBOL res 1888 864 R0
SYMATTR InstName Rchannel2
SYMATTR Value 100Meg
SYMBOL g 1712 -512 R0
SYMATTR InstName G1
SYMATTR Value 1k
SYMBOL g 1728 864 R0
SYMATTR InstName G2
SYMATTR Value 1k
SYMBOL HMC799 3072 112 R0
WINDOW 0 -127 -85 Left 2
WINDOW 3 -125 83 Left 2
SYMATTR InstName U2
SYMBOL cap 2832 96 R90
WINDOW 0 0 32 VBottom 2
WINDOW 3 32 32 VTop 2
SYMATTR InstName C3
SYMATTR Value 0.1µF
SYMBOL cap 3376 96 R90
WINDOW 0 0 32 VBottom 2
WINDOW 3 32 32 VTop 2
SYMATTR InstName C5
SYMATTR Value 0.1µF
SYMBOL res 3440 112 R0
SYMATTR InstName R6
SYMATTR Value 49.9
SYMBOL cap 784 64 R90
WINDOW 0 0 32 VBottom 2
WINDOW 3 32 32 VTop 2
SYMATTR InstName C1
SYMATTR Value 0.1µF
SYMBOL cap 800 1456 R90
WINDOW 0 0 32 VBottom 2
WINDOW 3 32 32 VTop 2
SYMATTR InstName C2
SYMATTR Value 0.1µF
SYMBOL res 2256 208 R0
SYMATTR InstName R_APD
SYMATTR Value 10Meg
SYMBOL cap 2448 240 R0
SYMATTR InstName C_APD
SYMATTR Value 4pF
SYMBOL voltage -608 -96 M0
WINDOW 123 0 0 Left 0
WINDOW 39 0 0 Left 0
SYMATTR InstName V4
SYMATTR Value 4.7
TEXT -360 184 Left 2 !.tran 0 50u 0
TEXT -352 0 Left 2 !.lib OPA698.lib
TEXT -352 24 Left 2 !.lib BUF602.lib
TEXT -352 -24 Left 2 !.lib HMC799.lib
TEXT -360 160 Left 2 !;ac dec 1k 1Meg 10G
TEXT -352 -48 Left 2 !.lib BFU590Q.LIB
TEXT -488 920 Left 5 ;0 dBm, 0 and 180 deg Signal Source
TEXT 1560 -752 Left 5 ;Optical-to-Electrical\nTransduction
TEXT 1584 1216 Left 5 ;Optical-to-Electrical\nTransduction
TEXT 2256 544 Left 5 ;APD Model
TEXT 2888 -232 Left 5 ;TIA With\nLoad Termination
TEXT 624 304 Left 5 ;Bias for\n1mA\nCollector\nCurrent
TEXT 1056 352 Left 5 ;Push Stage
TEXT 1008 1760 Left 5 ;Pull Stage
RECTANGLE Normal 2208 -192 1568 -640 2
RECTANGLE Normal 2224 1184 1584 736 2
RECTANGLE Normal 432 880 -464 272 2
RECTANGLE Normal 2592 496 2208 48 2
RECTANGLE Normal 3536 448 2736 -112 2
RECTANGLE Normal 992 1008 624 544 2
RECTANGLE Normal 1376 320 992 -32 2
RECTANGLE Normal 1344 1728 960 1376 2
