Version 4
SHEET 1 7424 924
WIRE 912 -1632 896 -1632
WIRE 1040 -1632 992 -1632
WIRE 1152 -1632 1040 -1632
WIRE 1200 -1632 1152 -1632
WIRE 1296 -1632 1280 -1632
WIRE 1440 -1632 1360 -1632
WIRE 1552 -1632 1440 -1632
WIRE 1600 -1632 1552 -1632
WIRE 1696 -1632 1680 -1632
WIRE 1040 -1600 1040 -1632
WIRE 1152 -1600 1152 -1632
WIRE 1440 -1600 1440 -1632
WIRE 1552 -1600 1552 -1632
WIRE 1040 -1488 1040 -1536
WIRE 1152 -1488 1152 -1520
WIRE 1440 -1488 1440 -1520
WIRE 1552 -1488 1552 -1536
WIRE 2800 -1200 -368 -1200
WIRE 2800 -1104 2800 -1200
WIRE 2880 -1104 2800 -1104
WIRE 3984 -1104 3200 -1104
WIRE 2320 -1088 2320 -1104
WIRE 144 -1072 80 -1072
WIRE 368 -1072 224 -1072
WIRE 448 -1072 368 -1072
WIRE 544 -1072 512 -1072
WIRE 672 -1072 624 -1072
WIRE 752 -1072 672 -1072
WIRE 848 -1072 816 -1072
WIRE 960 -1072 928 -1072
WIRE 1040 -1072 960 -1072
WIRE 1136 -1072 1104 -1072
WIRE 1264 -1072 1216 -1072
WIRE 1344 -1072 1264 -1072
WIRE 1440 -1072 1408 -1072
WIRE 1568 -1072 1520 -1072
WIRE 1664 -1072 1568 -1072
WIRE 1760 -1072 1728 -1072
WIRE 1888 -1072 1840 -1072
WIRE 2016 -1072 1888 -1072
WIRE 2304 -1072 2016 -1072
WIRE 3984 -1072 3984 -1104
WIRE 368 -1056 368 -1072
WIRE 672 -1056 672 -1072
WIRE 960 -1056 960 -1072
WIRE 1264 -1056 1264 -1072
WIRE 1568 -1056 1568 -1072
WIRE 1888 -1056 1888 -1072
WIRE 2432 -1056 2368 -1056
WIRE 2496 -1056 2432 -1056
WIRE 2656 -1056 2576 -1056
WIRE 2704 -1056 2656 -1056
WIRE 2800 -1056 2768 -1056
WIRE 2304 -1040 2288 -1040
WIRE 80 -1024 80 -1072
WIRE 2016 -1024 2016 -1072
WIRE -368 -1008 -368 -1200
WIRE 2320 -1008 2320 -1024
WIRE 2656 -1008 2656 -1056
WIRE 2800 -1008 2800 -1056
WIRE 2832 -1008 2800 -1008
WIRE 2880 -1008 2832 -1008
WIRE 3888 -1008 3200 -1008
WIRE 368 -960 368 -976
WIRE 672 -960 672 -976
WIRE 960 -960 960 -976
WIRE 1264 -960 1264 -976
WIRE 1568 -960 1568 -976
WIRE 1888 -960 1888 -976
WIRE 3888 -960 3888 -1008
WIRE 3984 -960 3984 -992
WIRE 2832 -912 2800 -912
WIRE 2880 -912 2832 -912
WIRE 3264 -912 3200 -912
WIRE 3344 -912 3264 -912
WIRE 3488 -912 3424 -912
WIRE 3616 -912 3488 -912
WIRE 3696 -912 3616 -912
WIRE -368 -880 -368 -928
WIRE 80 -880 80 -944
WIRE 2176 -880 2144 -880
WIRE 2288 -880 2288 -1040
WIRE 2288 -880 2256 -880
WIRE 2304 -880 2288 -880
WIRE 2320 -880 2304 -880
WIRE 2416 -880 2400 -880
WIRE 2432 -880 2432 -1056
WIRE 2432 -880 2416 -880
WIRE 2656 -864 2656 -928
WIRE 2704 -864 2656 -864
WIRE 2800 -864 2800 -912
WIRE 2800 -864 2768 -864
WIRE 3488 -864 3488 -912
WIRE 3616 -864 3616 -912
WIRE 3888 -864 3888 -896
WIRE 2016 -848 2016 -944
WIRE 2656 -832 2656 -864
WIRE 2880 -816 2848 -816
WIRE 3280 -816 3200 -816
WIRE 3280 -784 3280 -816
WIRE 80 -768 80 -800
WIRE 3488 -768 3488 -784
WIRE 3616 -768 3616 -800
WIRE 2304 -752 2304 -880
WIRE 2336 -752 2304 -752
WIRE 2416 -752 2416 -880
WIRE 2416 -752 2400 -752
WIRE -816 -736 -816 -768
WIRE -688 -736 -688 -768
WIRE 3280 -688 3280 -720
WIRE -816 -624 -816 -656
WIRE -688 -624 -688 -656
WIRE -816 -448 -816 -496
WIRE -688 -448 -688 -496
WIRE -816 -320 -816 -368
WIRE -688 -320 -688 -368
FLAG 3264 -912 vOUT
FLAG 2848 -816 0
FLAG 3984 -960 0
FLAG 2016 -848 0
FLAG 3488 -768 0
FLAG 3888 -864 0
FLAG 3280 -688 0
FLAG -368 -880 0
FLAG 2832 -1008 INHI
FLAG 2832 -912 INLO
FLAG -688 -624 0
FLAG -688 -768 RF
FLAG -816 -624 0
FLAG -816 -768 MOD
FLAG 80 -768 0
FLAG 3616 -768 0
FLAG 3696 -912 VOUT_FILT
FLAG -816 -320 0
FLAG -816 -496 VCC
FLAG -688 -320 0
FLAG -688 -496 VEE
FLAG 2320 -1104 VEE
FLAG 2320 -1008 VCC
FLAG 2656 -832 0
FLAG 2144 -880 0
FLAG 1040 -1488 0
FLAG 1152 -1488 0
FLAG 1552 -1488 0
FLAG 1440 -1488 0
FLAG 960 -960 0
FLAG 1264 -960 0
FLAG 672 -960 0
FLAG 1568 -960 0
FLAG 368 -960 0
FLAG 1888 -960 0
FLAG 1760 -1632 0
FLAG 832 -1632 0
SYMBOL cap 2768 -1072 R90
WINDOW 0 0 32 VBottom 2
WINDOW 3 32 32 VTop 2
SYMATTR InstName C1
SYMATTR Value 1µ
SYMBOL cap 2768 -880 R90
WINDOW 0 0 32 VBottom 2
WINDOW 3 32 32 VTop 2
SYMATTR InstName C2
SYMATTR Value 1µ
SYMBOL voltage -688 -752 R0
WINDOW 3 37 90 Left 2
WINDOW 123 0 0 Left 0
WINDOW 39 0 0 Left 0
SYMATTR Value SINE(0 {2*pow(10,dBV/20)} {fin} 0)
SYMATTR InstName V1
SYMBOL voltage 3984 -1088 R0
WINDOW 123 0 0 Left 0
WINDOW 39 0 0 Left 0
SYMATTR InstName V4
SYMATTR Value 5
SYMBOL voltage -368 -1024 R0
WINDOW 123 0 0 Left 0
WINDOW 39 0 0 Left 0
SYMATTR InstName V3
SYMATTR Value 5
SYMBOL cap 3872 -960 R0
SYMATTR InstName C3
SYMATTR Value 4.7p
SYMBOL cap 3264 -784 R0
SYMATTR InstName C4
SYMATTR Value 4.7p
SYMBOL AD8310 3040 -960 R0
SYMATTR InstName U1
SYMBOL res 128 -1056 R270
WINDOW 0 32 56 VTop 2
WINDOW 3 0 56 VBottom 2
SYMATTR InstName R2
SYMATTR Value 50
SYMBOL res 2640 -1024 R0
SYMATTR InstName R1
SYMATTR Value 51
SYMBOL res 3472 -880 R0
SYMATTR InstName R3
SYMATTR Value 10k
SYMBOL res 2592 -1072 R90
WINDOW 0 0 56 VBottom 2
WINDOW 3 32 56 VTop 2
SYMATTR InstName R4
SYMATTR Value 50
SYMBOL res 2000 -1040 R0
SYMATTR InstName R5
SYMATTR Value 50
SYMBOL voltage -816 -752 M0
WINDOW 3 37 90 Left 2
WINDOW 123 0 0 Left 0
WINDOW 39 0 0 Left 0
SYMATTR Value PULSE(0 1 100n 10p 10p 10u 20u 1)
SYMATTR InstName V2
SYMBOL bv 80 -1040 R0
SYMATTR InstName B1
SYMATTR Value V={V(MOD)*V(RF)}
SYMBOL bv 80 -896 M0
SYMATTR InstName B2
SYMATTR Value V={100u*white(1G*time)}
SYMBOL res 3440 -928 R90
WINDOW 0 0 56 VBottom 2
WINDOW 3 32 56 VTop 2
SYMATTR InstName R10
SYMATTR Value 50
SYMBOL cap 3600 -864 R0
SYMATTR InstName C5
SYMATTR Value 1000p
SYMBOL voltage -816 -464 R0
SYMATTR InstName V5
SYMATTR Value 3.3
SYMBOL voltage -688 -464 R0
SYMATTR InstName V6
SYMATTR Value -3.3
SYMBOL res 2416 -896 R90
WINDOW 0 0 56 VBottom 2
WINDOW 3 32 56 VTop 2
SYMATTR InstName R6
SYMATTR Value 1.95k
SYMBOL res 2272 -896 R90
WINDOW 0 0 56 VBottom 2
WINDOW 3 32 56 VTop 2
SYMATTR InstName R7
SYMATTR Value 100
SYMBOL OpAmps\\ADA4895 2336 -1056 M180
SYMATTR InstName U2
SYMBOL cap 2400 -768 R90
WINDOW 0 0 32 VBottom 2
WINDOW 3 32 32 VTop 2
SYMATTR InstName C11
SYMATTR Value 1.5p
SYMBOL cap 896 -1648 R90
WINDOW 0 0 32 VBottom 2
WINDOW 3 32 32 VTop 2
SYMATTR InstName C6
SYMATTR Value 43p
SYMBOL ind 896 -1616 R270
WINDOW 0 32 56 VTop 2
WINDOW 3 5 56 VBottom 2
SYMATTR InstName L1
SYMATTR Value 6.2µ
SYMBOL cap 1024 -1600 R0
SYMATTR InstName C7
SYMATTR Value 4.3n
SYMBOL ind 1136 -1616 R0
SYMATTR InstName L2
SYMATTR Value 62n
SYMBOL cap 1296 -1648 M90
WINDOW 0 0 32 VBottom 2
WINDOW 3 32 32 VTop 2
SYMATTR InstName C8
SYMATTR Value 20p
SYMBOL ind 1296 -1616 M270
WINDOW 0 32 56 VTop 2
WINDOW 3 5 56 VBottom 2
SYMATTR InstName L3
SYMATTR Value 13µ
SYMBOL cap 1696 -1648 M90
WINDOW 0 0 32 VBottom 2
WINDOW 3 32 32 VTop 2
SYMATTR InstName C9
SYMATTR Value 43p
SYMBOL ind 1696 -1616 M270
WINDOW 0 32 56 VTop 2
WINDOW 3 5 56 VBottom 2
SYMATTR InstName L4
SYMATTR Value 6.2µ
SYMBOL cap 1568 -1600 M0
SYMATTR InstName C10
SYMATTR Value 4.3n
SYMBOL ind 1456 -1616 M0
SYMATTR InstName L5
SYMATTR Value 62n
SYMBOL cap 816 -1088 R90
WINDOW 0 0 32 VBottom 2
WINDOW 3 32 32 VTop 2
SYMATTR InstName C12
SYMATTR Value 100p
SYMBOL ind 832 -1056 R270
WINDOW 0 32 56 VTop 2
WINDOW 3 5 56 VBottom 2
SYMATTR InstName L6
SYMATTR Value 2.4µ
SYMBOL cap 1104 -1088 R90
WINDOW 0 0 32 VBottom 2
WINDOW 3 32 32 VTop 2
SYMATTR InstName C13
SYMATTR Value 100p
SYMBOL ind 1120 -1056 R270
WINDOW 0 32 56 VTop 2
WINDOW 3 5 56 VBottom 2
SYMATTR InstName L7
SYMATTR Value 2.4µ
SYMBOL cap 1408 -1088 R90
WINDOW 0 0 32 VBottom 2
WINDOW 3 32 32 VTop 2
SYMATTR InstName C14
SYMATTR Value 100p
SYMBOL ind 1424 -1056 R270
WINDOW 0 32 56 VTop 2
WINDOW 3 5 56 VBottom 2
SYMATTR InstName L8
SYMATTR Value 2.4µ
SYMBOL ind 944 -1072 R0
SYMATTR InstName L9
SYMATTR Value 56n
SYMBOL ind 1248 -1072 R0
SYMATTR InstName L10
SYMATTR Value 56n
SYMBOL ind 656 -1072 R0
SYMATTR InstName L11
SYMATTR Value 68n
SYMBOL ind 1552 -1072 R0
SYMATTR InstName L12
SYMATTR Value 68n
SYMBOL cap 1728 -1088 R90
WINDOW 0 0 32 VBottom 2
WINDOW 3 32 32 VTop 2
SYMATTR InstName C15
SYMATTR Value 100p
SYMBOL ind 1744 -1056 R270
WINDOW 0 32 56 VTop 2
WINDOW 3 5 56 VBottom 2
SYMATTR InstName L13
SYMATTR Value 2.2µ
SYMBOL cap 512 -1088 R90
WINDOW 0 0 32 VBottom 2
WINDOW 3 32 32 VTop 2
SYMATTR InstName C16
SYMATTR Value 100p
SYMBOL ind 528 -1056 R270
WINDOW 0 32 56 VTop 2
WINDOW 3 5 56 VBottom 2
SYMATTR InstName L14
SYMATTR Value 2.2µ
SYMBOL ind 352 -1072 R0
SYMATTR InstName L15
SYMATTR Value 270n
SYMBOL ind 1872 -1072 R0
SYMATTR InstName L16
SYMATTR Value 270n
TEXT 2960 -696 Left 2 !.tran 25u
TEXT 24 -1152 Left 2 ;RF Signal Generator
TEXT 32 -696 Left 2 !.param fin=10.0Meg\n.param dBV -93
RECTANGLE Normal 256 -720 32 -1136 2
