Version 4
SHEET 1 3344 1076
WIRE 48 -880 32 -880
WIRE 176 -880 128 -880
WIRE 288 -880 176 -880
WIRE 336 -880 288 -880
WIRE 432 -880 416 -880
WIRE 576 -880 496 -880
WIRE 688 -880 576 -880
WIRE 736 -880 688 -880
WIRE 832 -880 816 -880
WIRE 176 -848 176 -880
WIRE 288 -848 288 -880
WIRE 576 -848 576 -880
WIRE 688 -848 688 -880
WIRE 176 -736 176 -784
WIRE 288 -736 288 -768
WIRE 576 -736 576 -768
WIRE 688 -736 688 -784
WIRE 3264 -624 3152 -624
WIRE 2608 -544 2608 -592
WIRE 496 -528 -160 -528
WIRE 576 -528 496 -528
WIRE 672 -528 640 -528
WIRE 800 -528 752 -528
WIRE 880 -528 800 -528
WIRE 976 -528 944 -528
WIRE 1088 -528 1056 -528
WIRE 1168 -528 1088 -528
WIRE 1264 -528 1232 -528
WIRE 1392 -528 1344 -528
WIRE 1472 -528 1392 -528
WIRE 1568 -528 1536 -528
WIRE 1696 -528 1648 -528
WIRE 1792 -528 1696 -528
WIRE 1888 -528 1856 -528
WIRE 2016 -528 1968 -528
WIRE 2304 -528 2016 -528
WIRE 2592 -528 2304 -528
WIRE 496 -512 496 -528
WIRE 800 -512 800 -528
WIRE 1088 -512 1088 -528
WIRE 1392 -512 1392 -528
WIRE 1696 -512 1696 -528
WIRE 2016 -512 2016 -528
WIRE 2720 -512 2656 -512
WIRE 2816 -512 2720 -512
WIRE 3152 -512 3152 -624
WIRE 3152 -512 2896 -512
WIRE -160 -496 -160 -528
WIRE 2304 -496 2304 -528
WIRE 2592 -496 2576 -496
WIRE 3152 -496 3152 -512
WIRE 2608 -448 2608 -480
WIRE 496 -416 496 -432
WIRE 800 -416 800 -432
WIRE 1088 -416 1088 -432
WIRE 1392 -416 1392 -432
WIRE 1696 -416 1696 -432
WIRE 2016 -416 2016 -432
WIRE -160 -384 -160 -416
WIRE 2304 -384 2304 -416
WIRE 3152 -384 3152 -416
WIRE 2464 -336 2416 -336
WIRE 2576 -336 2576 -496
WIRE 2576 -336 2544 -336
WIRE 2592 -336 2576 -336
WIRE 2608 -336 2592 -336
WIRE 2704 -336 2688 -336
WIRE 2720 -336 2720 -512
WIRE 2720 -336 2704 -336
WIRE 2592 -240 2592 -336
WIRE 2624 -240 2592 -240
WIRE 2704 -240 2704 -336
WIRE 2704 -240 2688 -240
WIRE 3264 0 3152 0
WIRE 2608 80 2608 32
WIRE 1072 96 -160 96
WIRE 1152 96 1136 96
WIRE 1280 96 1232 96
WIRE 1392 96 1280 96
WIRE 1440 96 1392 96
WIRE 1536 96 1520 96
WIRE 1680 96 1600 96
WIRE 1792 96 1680 96
WIRE 1840 96 1792 96
WIRE 1936 96 1920 96
WIRE 2304 96 2000 96
WIRE 2592 96 2304 96
WIRE 2720 112 2656 112
WIRE 2816 112 2720 112
WIRE 3152 112 3152 0
WIRE 3152 112 2896 112
WIRE -160 128 -160 96
WIRE 1280 128 1280 96
WIRE 1392 128 1392 96
WIRE 1680 128 1680 96
WIRE 1792 128 1792 96
WIRE 2304 128 2304 96
WIRE 2592 128 2576 128
WIRE 3152 128 3152 112
WIRE 2608 176 2608 144
WIRE -160 240 -160 208
WIRE 1280 240 1280 192
WIRE 1392 240 1392 208
WIRE 1680 240 1680 208
WIRE 1792 240 1792 192
WIRE 2304 240 2304 208
WIRE 3152 240 3152 208
WIRE 2464 288 2416 288
WIRE 2576 288 2576 128
WIRE 2576 288 2544 288
WIRE 2592 288 2576 288
WIRE 2608 288 2592 288
WIRE 2704 288 2688 288
WIRE 2720 288 2720 112
WIRE 2720 288 2704 288
WIRE 2592 384 2592 288
WIRE 2624 384 2592 384
WIRE 2704 384 2704 288
WIRE 2704 384 2688 384
WIRE -160 576 -160 528
WIRE -32 576 -32 528
WIRE -160 704 -160 656
WIRE -32 704 -32 656
FLAG 3152 240 0
FLAG -160 240 0
FLAG 2304 240 0
FLAG 2608 32 VEE
FLAG 2608 176 VCC
FLAG 2416 288 0
FLAG -160 704 0
FLAG -160 528 VCC
FLAG -32 704 0
FLAG -32 528 VEE
FLAG 176 -736 0
FLAG 288 -736 0
FLAG 688 -736 0
FLAG 576 -736 0
FLAG 3264 0 OUT
FLAG 1088 -416 0
FLAG 1392 -416 0
FLAG 800 -416 0
FLAG 1696 -416 0
FLAG 496 -416 0
FLAG 2016 -416 0
FLAG 1280 240 0
FLAG 1392 240 0
FLAG 1792 240 0
FLAG 1680 240 0
FLAG 3152 -384 0
FLAG -160 -384 0
FLAG 2304 -384 0
FLAG 2608 -592 VEE
FLAG 2608 -448 VCC
FLAG 2416 -336 0
FLAG 3264 -624 OUT2
SYMBOL res 3136 112 R0
SYMATTR InstName RL
SYMATTR Value {Z0}
SYMBOL voltage -160 112 R0
WINDOW 123 24 124 Left 2
WINDOW 39 24 152 Left 2
SYMATTR Value2 AC 1
SYMATTR SpiceLine Rser={Z0}
SYMATTR InstName VS
SYMATTR Value 0
SYMBOL res 2288 112 R0
SYMATTR InstName R1
SYMATTR Value {Z0}
SYMBOL res 2704 272 R90
WINDOW 0 0 56 VBottom 2
WINDOW 3 32 56 VTop 2
SYMATTR InstName R2
SYMATTR Value 1.95k
SYMBOL res 2560 272 R90
WINDOW 0 0 56 VBottom 2
WINDOW 3 32 56 VTop 2
SYMATTR InstName R3
SYMATTR Value 100
SYMBOL OpAmps\\ADA4895 2624 112 M180
SYMATTR InstName U1
SYMBOL res 2912 96 R90
WINDOW 0 0 56 VBottom 2
WINDOW 3 32 56 VTop 2
SYMATTR InstName R4
SYMATTR Value {Z0}
SYMBOL voltage -160 560 R0
SYMATTR InstName V1
SYMATTR Value 3.3
SYMBOL voltage -32 560 R0
SYMATTR InstName V2
SYMATTR Value -3.3
SYMBOL cap 2688 368 R90
WINDOW 0 0 32 VBottom 2
WINDOW 3 32 32 VTop 2
SYMATTR InstName C6
SYMATTR Value 1.5p
SYMBOL cap 32 -896 R90
WINDOW 0 0 32 VBottom 2
WINDOW 3 32 32 VTop 2
SYMATTR InstName C1
SYMATTR Value 43p
SYMBOL ind 32 -864 R270
WINDOW 0 32 56 VTop 2
WINDOW 3 5 56 VBottom 2
SYMATTR InstName L1
SYMATTR Value 6.2µ
SYMBOL cap 160 -848 R0
SYMATTR InstName C2
SYMATTR Value 4.3n
SYMBOL ind 272 -864 R0
SYMATTR InstName L2
SYMATTR Value 62n
SYMBOL cap 432 -896 M90
WINDOW 0 0 32 VBottom 2
WINDOW 3 32 32 VTop 2
SYMATTR InstName C3
SYMATTR Value 20p
SYMBOL ind 432 -864 M270
WINDOW 0 32 56 VTop 2
WINDOW 3 5 56 VBottom 2
SYMATTR InstName L3
SYMATTR Value 13µ
SYMBOL cap 832 -896 M90
WINDOW 0 0 32 VBottom 2
WINDOW 3 32 32 VTop 2
SYMATTR InstName C4
SYMATTR Value 43p
SYMBOL ind 832 -864 M270
WINDOW 0 32 56 VTop 2
WINDOW 3 5 56 VBottom 2
SYMATTR InstName L4
SYMATTR Value 6.2µ
SYMBOL cap 704 -848 M0
SYMATTR InstName C5
SYMATTR Value 4.3n
SYMBOL ind 592 -864 M0
SYMATTR InstName L5
SYMATTR Value 62n
SYMBOL cap 944 -544 R90
WINDOW 0 0 32 VBottom 2
WINDOW 3 32 32 VTop 2
SYMATTR InstName C7
SYMATTR Value 100p
SYMBOL ind 960 -512 R270
WINDOW 0 32 56 VTop 2
WINDOW 3 5 56 VBottom 2
SYMATTR InstName L6
SYMATTR Value 2.4µ
SYMBOL cap 1232 -544 R90
WINDOW 0 0 32 VBottom 2
WINDOW 3 32 32 VTop 2
SYMATTR InstName C9
SYMATTR Value 100p
SYMBOL ind 1248 -512 R270
WINDOW 0 32 56 VTop 2
WINDOW 3 5 56 VBottom 2
SYMATTR InstName L7
SYMATTR Value 2.4µ
SYMBOL cap 1536 -544 R90
WINDOW 0 0 32 VBottom 2
WINDOW 3 32 32 VTop 2
SYMATTR InstName C11
SYMATTR Value 100p
SYMBOL ind 1552 -512 R270
WINDOW 0 32 56 VTop 2
WINDOW 3 5 56 VBottom 2
SYMATTR InstName L8
SYMATTR Value 2.4µ
SYMBOL ind 1072 -528 R0
SYMATTR InstName L9
SYMATTR Value 56n
SYMBOL ind 1376 -528 R0
SYMATTR InstName L10
SYMATTR Value 56n
SYMBOL ind 784 -528 R0
SYMATTR InstName L11
SYMATTR Value 68n
SYMBOL ind 1680 -528 R0
SYMATTR InstName L12
SYMATTR Value 68n
SYMBOL cap 1856 -544 R90
WINDOW 0 0 32 VBottom 2
WINDOW 3 32 32 VTop 2
SYMATTR InstName C8
SYMATTR Value 100p
SYMBOL ind 1872 -512 R270
WINDOW 0 32 56 VTop 2
WINDOW 3 5 56 VBottom 2
SYMATTR InstName L13
SYMATTR Value 2.2µ
SYMBOL cap 640 -544 R90
WINDOW 0 0 32 VBottom 2
WINDOW 3 32 32 VTop 2
SYMATTR InstName C10
SYMATTR Value 100p
SYMBOL ind 656 -512 R270
WINDOW 0 32 56 VTop 2
WINDOW 3 5 56 VBottom 2
SYMATTR InstName L14
SYMATTR Value 2.2µ
SYMBOL ind 480 -528 R0
SYMATTR InstName L15
SYMATTR Value 270n
SYMBOL ind 2000 -528 R0
SYMATTR InstName L16
SYMATTR Value 270n
SYMBOL cap 1136 80 R90
WINDOW 0 0 32 VBottom 2
WINDOW 3 32 32 VTop 2
SYMATTR InstName C12
SYMATTR Value 200p
SYMBOL ind 1136 112 R270
WINDOW 0 32 56 VTop 2
WINDOW 3 5 56 VBottom 2
SYMATTR InstName L17
SYMATTR Value 120µ
SYMBOL cap 1264 128 R0
SYMATTR InstName C13
SYMATTR Value 56n
SYMBOL ind 1376 112 R0
SYMATTR InstName L18
SYMATTR Value 430n
SYMBOL cap 1536 80 M90
WINDOW 0 0 32 VBottom 2
WINDOW 3 32 32 VTop 2
SYMATTR InstName C14
SYMATTR Value 120p
SYMBOL ind 1536 112 M270
WINDOW 0 32 56 VTop 2
WINDOW 3 5 56 VBottom 2
SYMATTR InstName L19
SYMATTR Value 200µ
SYMBOL cap 1936 80 M90
WINDOW 0 0 32 VBottom 2
WINDOW 3 32 32 VTop 2
SYMATTR InstName C15
SYMATTR Value 200p
SYMBOL ind 1936 112 M270
WINDOW 0 32 56 VTop 2
WINDOW 3 5 56 VBottom 2
SYMATTR InstName L20
SYMATTR Value 120µ
SYMBOL cap 1808 128 M0
SYMATTR InstName C16
SYMATTR Value 56n
SYMBOL ind 1696 112 M0
SYMATTR InstName L21
SYMATTR Value 430n
SYMBOL res 3136 -512 R0
SYMATTR InstName RL2
SYMATTR Value {Z0}
SYMBOL voltage -160 -512 R0
WINDOW 123 24 124 Left 2
WINDOW 39 24 152 Left 2
SYMATTR Value2 AC 1
SYMATTR SpiceLine Rser={Z0}
SYMATTR InstName VS2
SYMATTR Value 0
SYMBOL res 2288 -512 R0
SYMATTR InstName R5
SYMATTR Value {Z0}
SYMBOL res 2704 -352 R90
WINDOW 0 0 56 VBottom 2
WINDOW 3 32 56 VTop 2
SYMATTR InstName R6
SYMATTR Value 1.95k
SYMBOL res 2560 -352 R90
WINDOW 0 0 56 VBottom 2
WINDOW 3 32 56 VTop 2
SYMATTR InstName R7
SYMATTR Value 100
SYMBOL OpAmps\\ADA4895 2624 -512 M180
SYMATTR InstName U2
SYMBOL res 2912 -528 R90
WINDOW 0 0 56 VBottom 2
WINDOW 3 32 56 VTop 2
SYMATTR InstName R8
SYMATTR Value {Z0}
SYMBOL cap 2688 -256 R90
WINDOW 0 0 32 VBottom 2
WINDOW 3 32 32 VTop 2
SYMATTR InstName C17
SYMATTR Value 1.5p
TEXT -160 352 Left 2 !.net I(RL) VS
TEXT -192 376 Left 2 !.ac dec 1k 1k 100Meg
TEXT -160 328 Left 2 !.param Z0 = 50.0
TEXT 304 -704 Left 2 ;10MHz 5th Order
TEXT 1408 288 Left 2 ;1MHz 5th Order
TEXT -184 408 Left 2 !.net I(RL2) VS2
