Version 4
SHEET 1 1780 1508
WIRE 784 -32 208 -32
WIRE 208 32 208 -32
WIRE -128 144 -256 144
WIRE 16 144 -64 144
WIRE 208 144 208 112
WIRE 208 144 96 144
WIRE -1088 192 -1216 192
WIRE 784 240 784 -32
WIRE 1216 240 1216 -32
WIRE 1360 240 1360 -32
WIRE -1168 288 -1168 272
WIRE 208 288 208 144
WIRE -1216 304 -1216 192
WIRE -1184 304 -1216 304
WIRE -400 304 -400 288
WIRE -1088 320 -1088 192
WIRE -1088 320 -1120 320
WIRE -896 320 -1088 320
WIRE -416 320 -816 320
WIRE -1424 336 -1472 336
WIRE -1296 336 -1344 336
WIRE -1184 336 -1296 336
WIRE -256 336 -256 144
WIRE -256 336 -352 336
WIRE -240 336 -256 336
WIRE -96 336 -160 336
WIRE 144 336 -96 336
WIRE -1472 352 -1472 336
WIRE -416 352 -480 352
WIRE -1168 368 -1168 352
WIRE -400 384 -400 368
WIRE -96 448 -96 416
WIRE -1296 480 -1296 336
WIRE -1472 496 -1472 432
WIRE -480 544 -480 352
WIRE 16 544 16 464
WIRE 16 544 -480 544
WIRE 208 544 208 384
WIRE 208 544 16 544
WIRE 208 576 208 544
WIRE 560 576 208 576
WIRE 208 640 208 576
WIRE 784 640 784 320
WIRE 1216 640 1216 320
WIRE 1360 640 1360 320
WIRE -1472 688 -1472 576
WIRE -1296 688 -1296 560
WIRE 208 784 208 720
WIRE 768 800 640 800
WIRE 688 896 688 880
WIRE 640 912 640 800
WIRE 672 912 640 912
WIRE 1376 912 896 912
WIRE 1520 912 1456 912
WIRE 1632 912 1520 912
WIRE 768 928 768 800
WIRE 768 928 736 928
WIRE 896 928 896 912
WIRE 896 928 768 928
WIRE 560 944 560 576
WIRE 672 944 560 944
WIRE 1520 944 1520 912
WIRE 688 976 688 960
WIRE 1520 1072 1520 1024
FLAG -1472 688 0
FLAG 208 784 0
FLAG 784 640 0
FLAG 1216 640 0
FLAG 1216 -32 VCC
FLAG -400 384 VCC
FLAG -1296 688 0
FLAG -1168 272 VCC
FLAG 1360 640 0
FLAG 1360 -32 VEE
FLAG -1168 368 VEE
FLAG -400 288 VEE
FLAG 688 880 VCC
FLAG 688 976 VEE
FLAG 1520 1072 0
SYMBOL res 192 624 R0
SYMATTR InstName R1
SYMATTR Value 10
SYMBOL Custom_LTspice_sym\\Infineon_RF_Transistors\\Infineon_RF_NPN_3PIN 144 288 R0
SYMATTR InstName U1
SYMATTR Value BFU590Q
SYMBOL voltage -1472 480 M0
WINDOW 123 24 124 Left 2
WINDOW 39 0 0 Left 0
SYMATTR Value2 AC 0
SYMATTR InstName V1
SYMATTR Value PULSE(0 1 1u 0.2n 0.2n 25n 50n)
SYMBOL voltage 784 224 R0
WINDOW 123 24 124 Left 2
WINDOW 39 0 0 Left 0
SYMATTR InstName V2
SYMATTR Value 5
SYMBOL voltage 1216 224 R0
WINDOW 123 24 124 Left 2
WINDOW 39 0 0 Left 0
SYMATTR InstName V3
SYMATTR Value 5
SYMBOL res -1312 464 R0
SYMATTR InstName R3
SYMATTR Value 10k
SYMBOL res -1440 352 R270
WINDOW 0 32 56 VTop 2
WINDOW 3 0 56 VBottom 2
SYMATTR InstName R4
SYMATTR Value 49.9
SYMBOL voltage -1472 336 M0
WINDOW 123 24 124 Left 2
WINDOW 39 0 0 Left 0
SYMATTR Value2 AC 1
SYMATTR InstName V4
SYMATTR Value 1
SYMBOL res 192 16 R0
SYMATTR InstName R6
SYMATTR Value 1µ
SYMBOL res -144 320 R90
WINDOW 0 0 56 VBottom 2
WINDOW 3 32 56 VTop 2
SYMATTR InstName R7
SYMATTR Value 1µ
SYMBOL cap -112 448 R0
SYMATTR InstName C2
SYMATTR Value 2n
SYMBOL res -112 320 R0
SYMATTR InstName R8
SYMATTR Value 200
SYMBOL cap 0 400 R0
SYMATTR InstName C3
SYMATTR Value 1p
SYMBOL Opamps\\LTC6252 -1152 320 R0
SYMATTR InstName U4
SYMBOL res -800 304 R90
WINDOW 0 0 56 VBottom 2
WINDOW 3 32 56 VTop 2
SYMATTR InstName R12
SYMATTR Value 49.9
SYMBOL voltage 1360 224 R0
WINDOW 123 24 124 Left 2
WINDOW 39 0 0 Left 0
SYMATTR InstName V5
SYMATTR Value -5
SYMBOL Opamps\\LTC6252 704 928 R0
SYMATTR InstName U3
SYMBOL res 1472 896 R90
WINDOW 0 0 56 VBottom 2
WINDOW 3 32 56 VTop 2
SYMATTR InstName R13
SYMATTR Value 50
SYMBOL res 1504 1040 M180
WINDOW 0 36 76 Left 2
WINDOW 3 36 40 Left 2
SYMATTR InstName R14
SYMATTR Value 50
SYMBOL Opamps\\LTC6252 -384 336 M180
SYMATTR InstName U2
SYMBOL res 112 128 R90
WINDOW 0 0 56 VBottom 2
WINDOW 3 32 56 VTop 2
SYMATTR InstName R2
SYMATTR Value 47
SYMBOL cap -64 128 R90
WINDOW 0 0 32 VBottom 2
WINDOW 3 32 32 VTop 2
SYMATTR InstName C1
SYMATTR Value 100pF
TEXT -16 -520 Left 2 !.lib C:\\Users\\Vien\\Documents\\LTspice_Projects\\Current_Injector\\BFU590Q.LIB
TEXT -16 -600 Left 2 !;dc V1 0 5 10m
TEXT -16 -568 Left 2 !;ac dec 1k 1 10G
TEXT -672 -128 Left 2 !.tran 0 25u 0
