Version 4
SHEET 1 1620 1012
WIRE -672 -368 -672 -384
WIRE -560 -368 -560 -384
WIRE -144 -336 -224 -336
WIRE -16 -336 -64 -336
WIRE 48 -336 -16 -336
WIRE 176 -336 128 -336
WIRE -224 -304 -224 -336
WIRE -672 -272 -672 -288
WIRE -560 -272 -560 -288
WIRE 64 -176 64 -192
WIRE -16 -160 -16 -336
WIRE 48 -160 -16 -160
WIRE 176 -144 176 -336
WIRE 176 -144 112 -144
WIRE 272 -144 176 -144
WIRE 432 -144 352 -144
WIRE 48 -128 -304 -128
WIRE 64 -96 64 -112
WIRE -144 0 -224 0
WIRE -16 0 -64 0
WIRE 48 0 -16 0
WIRE 176 0 128 0
WIRE -224 32 -224 0
WIRE 64 160 64 144
WIRE -16 176 -16 0
WIRE 48 176 -16 176
WIRE 176 192 176 0
WIRE 176 192 112 192
WIRE 272 192 176 192
WIRE 432 192 432 -144
WIRE 432 192 352 192
WIRE -304 208 -304 -128
WIRE 48 208 -304 208
WIRE 928 224 784 224
WIRE 64 240 64 224
WIRE 848 304 848 288
WIRE 784 320 784 224
WIRE 832 320 784 320
WIRE 928 336 928 224
WIRE 928 336 896 336
WIRE 1120 336 928 336
WIRE 1312 336 1200 336
WIRE 1568 336 1312 336
WIRE -800 352 -928 352
WIRE -528 352 -720 352
WIRE -304 352 -304 208
WIRE -304 352 -528 352
WIRE -144 352 -224 352
WIRE -16 352 -64 352
WIRE 48 352 -16 352
WIRE 176 352 128 352
WIRE 432 352 432 192
WIRE 544 352 432 352
WIRE 736 352 544 352
WIRE 832 352 736 352
WIRE -224 384 -224 352
WIRE 848 384 848 368
WIRE 1312 384 1312 336
WIRE -928 400 -928 352
WIRE -528 400 -528 352
WIRE 736 400 736 352
WIRE 544 464 544 352
WIRE 64 512 64 496
WIRE -928 528 -928 480
WIRE -528 528 -528 480
WIRE -16 528 -16 352
WIRE 48 528 -16 528
WIRE 176 544 176 352
WIRE 176 544 112 544
WIRE 272 544 176 544
WIRE 432 544 432 352
WIRE 432 544 352 544
WIRE -304 560 -304 352
WIRE 48 560 -304 560
WIRE 736 560 736 480
WIRE 1312 560 1312 464
WIRE 64 592 64 576
WIRE 544 672 544 544
WIRE 736 672 736 624
WIRE -144 688 -224 688
WIRE -16 688 -64 688
WIRE 48 688 -16 688
WIRE 176 688 128 688
WIRE -224 720 -224 688
WIRE 64 848 64 832
WIRE -16 864 -16 688
WIRE 48 864 -16 864
WIRE 176 880 176 688
WIRE 176 880 112 880
WIRE 272 880 176 880
WIRE 432 880 432 544
WIRE 432 880 352 880
WIRE -304 896 -304 560
WIRE 48 896 -304 896
WIRE 64 928 64 912
FLAG 64 240 -5V
FLAG 64 144 +5V
FLAG -224 32 0
FLAG -672 -272 0
FLAG -672 -384 +5V
FLAG -560 -272 0
FLAG -560 -384 -5V
FLAG 64 -96 -5V
FLAG 64 -192 +5V
FLAG -224 -304 0
FLAG 64 928 -5V
FLAG 64 832 +5V
FLAG -224 720 0
FLAG 64 592 -5V
FLAG 64 496 +5V
FLAG -224 384 0
FLAG 1568 336 VO
FLAG -928 528 0
FLAG 544 672 0
FLAG 848 384 -5V
FLAG 848 288 +5V
FLAG 736 672 0
FLAG -528 528 0
FLAG 1312 560 0
SYMBOL Opamps\\ADA4895 80 192 R0
SYMATTR InstName U1
SYMBOL res 32 16 R270
WINDOW 0 32 56 VTop 2
WINDOW 3 0 56 VBottom 2
SYMATTR InstName R1
SYMATTR Value {RF}
SYMBOL res -160 16 R270
WINDOW 0 32 56 VTop 2
WINDOW 3 0 56 VBottom 2
SYMATTR InstName R2
SYMATTR Value {RG}
SYMBOL res 368 176 R90
WINDOW 0 0 56 VBottom 2
WINDOW 3 32 56 VTop 2
SYMATTR InstName R3
SYMATTR Value {RO}
SYMBOL voltage -672 -384 M0
WINDOW 123 0 0 Left 0
WINDOW 39 0 0 Left 0
SYMATTR InstName V1
SYMATTR Value 5
SYMBOL voltage -560 -384 M0
WINDOW 123 0 0 Left 0
WINDOW 39 0 0 Left 0
SYMATTR InstName V2
SYMATTR Value -5
SYMBOL Opamps\\ADA4895 80 -144 R0
SYMATTR InstName U2
SYMBOL res 32 -320 R270
WINDOW 0 32 56 VTop 2
WINDOW 3 0 56 VBottom 2
SYMATTR InstName R4
SYMATTR Value {RF}
SYMBOL res -160 -320 R270
WINDOW 0 32 56 VTop 2
WINDOW 3 0 56 VBottom 2
SYMATTR InstName R5
SYMATTR Value {RG}
SYMBOL res 368 -160 R90
WINDOW 0 0 56 VBottom 2
WINDOW 3 32 56 VTop 2
SYMATTR InstName R6
SYMATTR Value {RO}
SYMBOL Opamps\\ADA4895 80 880 R0
SYMATTR InstName U3
SYMBOL res 32 704 R270
WINDOW 0 32 56 VTop 2
WINDOW 3 0 56 VBottom 2
SYMATTR InstName R7
SYMATTR Value {RF}
SYMBOL res -160 704 R270
WINDOW 0 32 56 VTop 2
WINDOW 3 0 56 VBottom 2
SYMATTR InstName R8
SYMATTR Value {RG}
SYMBOL res 368 864 R90
WINDOW 0 0 56 VBottom 2
WINDOW 3 32 56 VTop 2
SYMATTR InstName R9
SYMATTR Value {RO}
SYMBOL Opamps\\ADA4895 80 544 R0
SYMATTR InstName U4
SYMBOL res 32 368 R270
WINDOW 0 32 56 VTop 2
WINDOW 3 0 56 VBottom 2
SYMATTR InstName R10
SYMATTR Value {RF}
SYMBOL res -160 368 R270
WINDOW 0 32 56 VTop 2
WINDOW 3 0 56 VBottom 2
SYMATTR InstName R11
SYMATTR Value {RG}
SYMBOL res 368 528 R90
WINDOW 0 0 56 VBottom 2
WINDOW 3 32 56 VTop 2
SYMATTR InstName R12
SYMATTR Value {RO}
SYMBOL voltage -928 384 M0
WINDOW 123 24 124 Left 2
WINDOW 39 0 0 Left 0
SYMATTR Value2 AC 1
SYMATTR InstName Vs
SYMATTR Value 0
SYMBOL Opamps\\ADA4807-1 864 336 R0
SYMATTR InstName U5
SYMBOL res 528 448 R0
SYMATTR InstName R14
SYMATTR Value 10k
SYMBOL cap 720 560 R0
SYMATTR InstName C1
SYMATTR Value 68pF
SYMBOL res 720 384 R0
SYMATTR InstName R15
SYMATTR Value 1
SYMBOL res -544 384 R0
SYMATTR InstName R13
SYMATTR Value 49.9
SYMBOL res -704 336 R90
WINDOW 0 0 56 VBottom 2
WINDOW 3 32 56 VTop 2
SYMATTR InstName R16
SYMATTR Value 49.9
SYMBOL res 1216 320 R90
WINDOW 0 0 56 VBottom 2
WINDOW 3 32 56 VTop 2
SYMATTR InstName R17
SYMATTR Value 49.9
SYMBOL res 1296 480 M180
WINDOW 0 36 76 Left 2
WINDOW 3 36 40 Left 2
SYMATTR InstName R18
SYMATTR Value 49.9
TEXT -1088 592 Left 2 !.ac dec 1k 1 1G
TEXT -1168 -88 Left 2 !.param RG=10 RF=100.0 RO=200
TEXT -1152 -440 Left 2 !;noise V(VO) Vs dec 1k 1 1G
