Version 4.1
SHEET 1 2472 924
WIRE 176 -48 -16 -48
WIRE 768 -48 176 -48
WIRE 928 -48 768 -48
WIRE 1184 -48 1008 -48
WIRE 928 -16 928 -48
WIRE 1008 -16 1008 -48
WIRE 1184 80 1184 -48
WIRE 640 96 592 96
WIRE 928 96 928 64
WIRE 928 96 720 96
WIRE -16 112 -16 -48
WIRE 176 144 176 -48
WIRE 592 144 592 96
WIRE 768 160 768 -48
WIRE 928 176 928 96
WIRE 928 176 800 176
WIRE 736 192 656 192
WIRE 1008 208 1008 64
WIRE 1008 208 800 208
WIRE 928 224 928 176
WIRE 1008 224 1008 208
WIRE 176 320 176 224
WIRE 768 320 768 224
WIRE 768 320 176 320
WIRE 928 320 928 304
WIRE 928 320 768 320
WIRE 1008 320 1008 304
WIRE 1008 320 928 320
WIRE 176 336 176 320
WIRE 592 336 592 240
WIRE 320 384 240 384
WIRE 528 384 320 384
WIRE 176 464 176 432
WIRE 320 464 320 384
WIRE 320 464 176 464
WIRE -16 480 -16 192
WIRE 1184 480 1184 160
WIRE 592 496 592 432
WIRE 592 496 512 496
WIRE 592 512 592 496
WIRE 592 608 592 592
FLAG 1184 480 0
FLAG -16 480 0
FLAG 512 496 ISNS_OUT
FLAG 592 608 0
FLAG 176 544 0
SYMBOL voltage -16 96 M0
WINDOW 123 0 0 Left 0
WINDOW 39 0 0 Left 0
SYMATTR InstName V1
SYMATTR Value 30
SYMBOL res 912 -32 R270
WINDOW 0 32 56 VTop 2
WINDOW 3 0 56 VBottom 2
SYMATTR InstName R1
SYMATTR Value 50m
SYMBOL current 1184 80 R0
WINDOW 123 24 108 Left 2
WINDOW 39 0 0 Left 0
SYMATTR Value2 AC 1
SYMATTR InstName I1
SYMATTR Value PULSE(0 10 100u 10n 10n 100n)
SYMBOL OpAmps\\UniversalOpAmp3b 768 192 M0
SYMATTR InstName U4
SYMATTR Value2 Avol=1Meg GBW=1000Meg Slew=500Meg
SYMATTR SpiceLine Ilimit=25m Rail=50m Vos=0 Phimargin=45
SYMBOL res 944 -32 M0
SYMATTR InstName R2
SYMATTR Value 1k
SYMBOL res 992 -32 R0
SYMATTR InstName R3
SYMATTR Value 1k
SYMBOL pnp 656 240 R180
SYMATTR InstName Q1
SYMBOL res 624 80 M90
WINDOW 0 0 56 VBottom 2
WINDOW 3 32 56 VTop 2
SYMATTR InstName R4
SYMATTR Value 1k
SYMBOL res 576 496 R0
SYMATTR InstName R5
SYMATTR Value 10k
SYMBOL pnp 528 432 M180
SYMATTR InstName Q2
SYMBOL pnp 240 432 R180
SYMATTR InstName Q3
SYMBOL res 192 448 M0
SYMATTR InstName R6
SYMATTR Value 10k
SYMBOL voltage 176 128 M0
WINDOW 123 0 0 Left 0
WINDOW 39 0 0 Left 0
SYMATTR InstName V2
SYMATTR Value 10
SYMBOL res 944 208 M0
SYMATTR InstName R7
SYMATTR Value 1k
SYMBOL res 992 208 R0
SYMATTR InstName R8
SYMATTR Value 1k
TEXT -80 576 Left 2 ;.ac dec 1k 1 100Meg
TEXT -88 616 Left 2 !.tran 0 10m 0
