Version 4.1
SHEET 1 972 1060
WIRE -128 -32 -240 -32
WIRE -48 -32 -128 -32
WIRE 32 -32 -48 -32
WIRE 128 -32 32 -32
WIRE 256 -32 128 -32
WIRE 496 -32 256 -32
WIRE 592 -32 496 -32
WIRE 128 -16 128 -32
WIRE 32 0 32 -32
WIRE 32 80 32 64
WIRE 128 80 128 64
WIRE 128 80 32 80
WIRE 496 80 496 -32
WIRE 592 80 592 -32
WIRE 128 96 128 80
WIRE 256 96 256 -32
WIRE -240 128 -240 -32
WIRE -128 160 -128 -32
WIRE 48 160 -32 160
WIRE -32 176 -32 160
WIRE -32 288 -32 256
WIRE 48 288 -32 288
WIRE 384 288 336 288
WIRE 496 288 496 144
WIRE 496 288 384 288
WIRE 592 288 592 160
WIRE 592 288 496 288
WIRE 768 288 592 288
WIRE 384 336 384 288
WIRE -240 368 -240 208
WIRE -128 368 -128 224
WIRE -128 368 -240 368
WIRE -32 368 -32 288
WIRE -32 368 -128 368
WIRE 128 368 128 352
WIRE 128 368 -32 368
WIRE -240 416 -240 368
WIRE 384 464 384 416
WIRE -96 640 -224 640
WIRE 128 640 -96 640
WIRE 304 640 128 640
WIRE 432 640 304 640
WIRE 560 640 432 640
WIRE -96 656 -96 640
WIRE 304 656 304 640
WIRE 128 688 128 640
WIRE 432 720 432 640
WIRE 560 720 560 640
WIRE -96 752 -96 736
WIRE 0 752 -96 752
WIRE 304 752 304 736
WIRE 304 752 256 752
WIRE 304 768 304 752
WIRE 0 864 -224 864
WIRE 304 864 304 848
WIRE 304 864 256 864
WIRE 384 864 304 864
WIRE 432 864 432 784
WIRE 432 864 384 864
WIRE 560 864 560 800
WIRE 560 864 432 864
WIRE 736 864 560 864
WIRE -224 896 -224 864
WIRE 384 912 384 864
WIRE 384 1040 384 992
FLAG 768 288 OUT1
FLAG -48 -32 BUS
FLAG -240 416 0
FLAG -224 896 0
FLAG -224 640 BUS
FLAG 384 464 0
FLAG 384 1040 0
FLAG 736 864 OUT2
SYMBOL res 112 80 M180
WINDOW 0 36 76 Left 2
WINDOW 3 36 40 Left 2
SYMATTR InstName R1
SYMATTR Value 301k
SYMBOL cap 16 64 M180
WINDOW 0 24 56 Left 2
WINDOW 3 24 8 Left 2
SYMATTR InstName C1
SYMATTR Value 100p
SYMBOL cap 480 144 M180
WINDOW 0 24 56 Left 2
WINDOW 3 24 8 Left 2
SYMATTR InstName C2
SYMATTR Value 10µ
SYMATTR SpiceLine Rser=10m
SYMBOL res 576 176 M180
WINDOW 0 36 76 Left 2
WINDOW 3 36 40 Left 2
SYMATTR InstName Rload
SYMATTR Value {15/100m}
SYMBOL LT3091 192 224 M180
SYMATTR InstName U1
SYMBOL voltage -240 112 M0
WINDOW 123 0 0 Left 0
WINDOW 39 0 0 Left 0
SYMATTR InstName V1
SYMATTR Value 30
SYMBOL cap -144 224 M180
WINDOW 0 24 56 Left 2
WINDOW 3 24 8 Left 2
SYMATTR InstName C3
SYMATTR Value 10µ
SYMATTR SpiceLine Rser=10m
SYMBOL res -48 272 M180
WINDOW 0 36 76 Left 2
WINDOW 3 36 40 Left 2
SYMATTR InstName R2
SYMATTR Value 5k
SYMBOL PowerProducts\\LT1185 128 800 R0
SYMATTR InstName U2
SYMBOL res -112 640 R0
SYMATTR InstName R3
SYMATTR Value 4.3K
SYMBOL res 288 640 R0
SYMATTR InstName R4
SYMATTR Value 2.37k
SYMBOL res 288 752 R0
SYMATTR InstName R5
SYMATTR Value 7.55k
SYMBOL cap 416 720 R0
WINDOW 39 24 84 Left 2
SYMATTR SpiceLine Rser=1
SYMATTR InstName C4
SYMATTR Value 2.2µ
SYMBOL res 368 320 R0
SYMATTR InstName R6
SYMATTR Value 1Meg
SYMBOL res 368 896 R0
SYMATTR InstName R8
SYMATTR Value 1Meg
SYMBOL res 544 816 M180
WINDOW 0 36 76 Left 2
WINDOW 3 36 40 Left 2
SYMATTR InstName Rload1
SYMATTR Value 50
TEXT -240 472 Left 2 !.tran .1 startup
