Version 4
SHEET 1 1328 1080
WIRE -928 -1072 -1104 -1072
WIRE -1104 -1024 -1104 -1072
WIRE -1104 -880 -1104 -944
WIRE -1584 -768 -1760 -768
WIRE -1584 -720 -1584 -768
WIRE -1584 -576 -1584 -640
WIRE 112 -320 -48 -320
WIRE 112 -64 112 -320
WIRE -48 16 -48 -320
WIRE 64 16 -48 16
WIRE -48 32 -48 16
WIRE 112 96 112 32
WIRE -48 176 -48 112
WIRE -48 528 -144 528
WIRE 112 528 112 272
WIRE -624 608 -784 608
WIRE -48 608 -48 528
WIRE 64 608 -48 608
WIRE -48 624 -48 608
WIRE -144 640 -144 528
WIRE -624 656 -624 608
WIRE 112 688 112 624
WIRE -144 736 -144 704
WIRE -48 768 -48 704
WIRE -624 800 -624 736
FLAG 112 272 +8V
FLAG 112 688 0
FLAG -1760 -768 +5V_CTL
FLAG -1584 -576 0
FLAG -624 800 0
FLAG -1104 -880 0
FLAG -784 608 VGG
FLAG -144 736 0
FLAG -48 768 VGG
FLAG -928 -1072 +8V
FLAG 112 96 0
FLAG -48 176 +8V
SYMBOL mesfet 64 528 R0
SYMATTR InstName Z1
SYMATTR Value N
SYMBOL voltage -1584 -736 R0
WINDOW 123 0 0 Left 0
WINDOW 39 0 0 Left 0
SYMATTR InstName V1
SYMATTR Value 5
SYMBOL voltage -624 640 M0
WINDOW 123 0 0 Left 0
WINDOW 39 0 0 Left 0
SYMATTR InstName VGG
SYMATTR Value -2.02
SYMBOL voltage -1104 -1040 R0
WINDOW 123 0 0 Left 0
WINDOW 39 0 0 Left 0
SYMATTR InstName VDD
SYMATTR Value 8
SYMBOL cap -160 640 R0
SYMATTR InstName C5
SYMATTR Value 11µ
SYMBOL res -64 608 R0
SYMATTR InstName R4
SYMATTR Value 1k
SYMBOL mesfet 64 -64 R0
SYMATTR InstName Z2
SYMATTR Value N
SYMBOL res -64 16 R0
SYMATTR InstName R1
SYMATTR Value 1
TEXT 176 552 Left 2 !.model n nmf beta=2 vto=-1.8\n+ cds=150f cgd=50f cgs=300f\n+ rd=0.62 rg=0.98 rs=1.38
TEXT -1504 1040 Left 2 !.model MAX4675 SW(RON=5, Roff=10Meg, Vt=0.5, Vh=-0.2)
TEXT -1880 1064 Left 2 !.dc VDD 0 8 0.1 VGG -2 0 0.25
