Version 4
SHEET 1 1328 884
WIRE -944 -800 -1120 -800
WIRE -912 -800 -944 -800
WIRE -1584 -768 -1760 -768
WIRE -1120 -752 -1120 -800
WIRE -1584 -720 -1584 -768
WIRE -944 -656 -944 -800
WIRE -912 -656 -944 -656
WIRE -336 -656 -368 -656
WIRE -208 -656 -336 -656
WIRE 80 -656 -208 -656
WIRE 128 -656 80 -656
WIRE 240 -656 208 -656
WIRE 416 -656 240 -656
WIRE 672 -656 416 -656
WIRE -1120 -608 -1120 -672
WIRE -1584 -576 -1584 -640
WIRE -336 -576 -336 -656
WIRE -336 -576 -368 -576
WIRE 416 -576 416 -656
WIRE -208 -560 -208 -656
WIRE -800 -480 -800 -496
WIRE -800 -480 -864 -480
WIRE -576 -480 -576 -496
WIRE -1696 -464 -1760 -464
WIRE -1536 -464 -1616 -464
WIRE -864 -464 -864 -480
WIRE -672 -464 -672 -496
WIRE -1760 -432 -1760 -464
WIRE -1808 -416 -1968 -416
WIRE -864 -384 -864 -400
WIRE -800 -384 -800 -400
WIRE -576 -384 -576 -400
WIRE -208 -384 -208 -496
WIRE 416 -384 416 -496
WIRE -1008 -336 -1104 -336
WIRE -832 -336 -944 -336
WIRE -1760 -320 -1760 -352
WIRE 80 -288 80 -656
WIRE 240 -288 240 -656
WIRE -1536 -256 -1536 -464
WIRE -1344 -256 -1536 -256
WIRE -1184 -256 -1264 -256
WIRE -1104 -256 -1104 -336
WIRE -1104 -256 -1184 -256
WIRE -1072 -256 -1104 -256
WIRE -928 -256 -1008 -256
WIRE -832 -256 -832 -336
WIRE -832 -256 -848 -256
WIRE -768 -256 -832 -256
WIRE 80 -176 80 -208
WIRE 240 -176 240 -208
WIRE 32 -48 -144 -48
WIRE 384 -48 288 -48
WIRE 544 -48 384 -48
WIRE -1184 -16 -1184 -256
WIRE -1040 -16 -1184 -16
WIRE 384 0 384 -48
WIRE -768 16 -768 -256
WIRE -768 16 -896 16
WIRE -560 16 -768 16
WIRE -240 16 -480 16
WIRE -1376 48 -1472 48
WIRE -1184 48 -1296 48
WIRE -1040 48 -1184 48
WIRE -1904 80 -2064 80
WIRE -1904 128 -1904 80
WIRE -1008 128 -1008 96
WIRE 160 128 160 80
WIRE 160 128 -128 128
WIRE 384 128 384 80
WIRE 384 128 160 128
WIRE -1184 160 -1184 48
WIRE -544 176 -544 64
WIRE -544 176 -688 176
WIRE -688 224 -688 176
WIRE -1904 272 -1904 208
WIRE -1184 288 -1184 224
WIRE -240 304 -240 16
WIRE -688 368 -688 304
WIRE -496 368 -496 64
WIRE 112 528 112 272
WIRE -624 608 -784 608
WIRE -544 608 -624 608
WIRE -240 608 -240 384
WIRE -240 608 -464 608
WIRE 64 608 -240 608
WIRE -624 656 -624 608
WIRE 112 688 112 624
WIRE -624 800 -624 736
FLAG -672 -464 0
FLAG -576 -384 0
FLAG -800 -384 0
FLAG -864 -384 0
FLAG 416 -384 0
FLAG -208 -384 0
FLAG 672 -656 +8V
FLAG 544 -48 OUT_ISNS
FLAG -144 -48 +5V_CTL
FLAG 112 272 +8V
FLAG 112 688 0
FLAG -1760 -768 +5V_CTL
FLAG -1584 -576 0
FLAG -624 800 0
FLAG -1120 -608 0
FLAG -784 608 -2V
FLAG -1008 -64 +5V_CTL
FLAG -1472 48 +5V_CTL
FLAG -1904 272 0
FLAG -2064 80 -3V
FLAG -1008 128 -2V
FLAG -1968 -416 OUT_ISNS
FLAG -1808 -368 0
FLAG -128 128 0
FLAG -1184 288 0
FLAG -1760 -320 0
FLAG -688 368 0
FLAG -496 368 0
SYMBOL PowerProducts\\LT3045 -672 -656 R0
SYMATTR InstName U1
SYMBOL res -592 -496 R0
SYMATTR InstName R1
SYMATTR Value 150
SYMBOL res -816 -496 R0
SYMATTR InstName R2
SYMATTR Value 80k
SYMBOL cap -880 -464 R0
SYMATTR InstName C1
SYMATTR Value 0.1µ
SYMBOL res 400 -592 R0
SYMATTR InstName R3
SYMATTR Value 1k
SYMBOL cap -224 -560 R0
SYMATTR InstName C2
SYMATTR Value 10µ
SYMBOL PowerProducts\\LT6105 160 -48 R0
SYMATTR InstName U2
SYMBOL res 64 -304 R0
SYMATTR InstName R4
SYMATTR Value 50
SYMBOL res 224 -304 R0
SYMATTR InstName R5
SYMATTR Value 50
SYMBOL res 368 -16 R0
SYMATTR InstName R6
SYMATTR Value 10k
SYMBOL res 224 -672 R90
WINDOW 0 0 56 VBottom 2
WINDOW 3 32 56 VTop 2
SYMATTR InstName R7
SYMATTR Value 50m
SYMBOL mesfet 64 528 R0
SYMATTR InstName Z1
SYMATTR Value N
SYMBOL res -448 592 R90
WINDOW 0 0 56 VBottom 2
WINDOW 3 32 56 VTop 2
SYMATTR InstName R8
SYMATTR Value 50k
SYMBOL voltage -1584 -736 R0
WINDOW 123 0 0 Left 0
WINDOW 39 0 0 Left 0
SYMATTR InstName V1
SYMATTR Value 5
SYMBOL voltage -624 640 M0
WINDOW 123 0 0 Left 0
WINDOW 39 0 0 Left 0
SYMATTR InstName V2
SYMATTR Value -2
SYMBOL voltage -1120 -768 R0
WINDOW 123 0 0 Left 0
WINDOW 39 0 0 Left 0
SYMATTR InstName V3
SYMATTR Value 9
SYMBOL Opamps\\LTC6261 -1008 16 R0
SYMATTR InstName U3
SYMBOL cap -1008 -272 R90
WINDOW 0 0 32 VBottom 2
WINDOW 3 32 32 VTop 2
SYMATTR InstName C3
SYMATTR Value 1µ
SYMBOL res -1248 -272 R90
WINDOW 0 0 56 VBottom 2
WINDOW 3 32 56 VTop 2
SYMATTR InstName R10
SYMATTR Value 10k
SYMBOL res -832 -272 R90
WINDOW 0 0 56 VBottom 2
WINDOW 3 32 56 VTop 2
SYMATTR InstName R11
SYMATTR Value 1k
SYMBOL cap -944 -352 R90
WINDOW 0 0 32 VBottom 2
WINDOW 3 32 32 VTop 2
SYMATTR InstName C4
SYMATTR Value 0.1µ
SYMBOL References\\LT1634-1.25 -1184 192 R0
SYMATTR InstName U4
SYMBOL res -1280 32 R90
WINDOW 0 0 56 VBottom 2
WINDOW 3 32 56 VTop 2
SYMATTR InstName R12
SYMATTR Value 1k
SYMBOL voltage -1904 112 M0
WINDOW 123 0 0 Left 0
WINDOW 39 0 0 Left 0
SYMATTR InstName V4
SYMATTR Value -3
SYMBOL res -1600 -480 R90
WINDOW 0 0 56 VBottom 2
WINDOW 3 32 56 VTop 2
SYMATTR InstName R13
SYMATTR Value 100
SYMBOL e -1760 -448 R0
SYMATTR InstName E1
SYMATTR Value 1
SYMBOL sw -464 16 M270
SYMATTR InstName S1
SYMATTR Value MYSW
SYMBOL voltage -688 208 M0
WINDOW 123 0 0 Left 0
WINDOW 39 0 0 Left 0
SYMATTR InstName V5
SYMATTR Value PULSE(0 5 500m 10u 10u 1)
SYMBOL res -256 288 R0
SYMATTR InstName R14
SYMATTR Value 1k
TEXT 176 552 Left 2 !.model n nmf beta=2 vto=-1.8\n+ cds=150f cgd=50f cgs=300f\n+ rd=0.62 rg=0.98 rs=1.38
TEXT -1736 304 Left 2 !.tran 0 1 0 startup
TEXT -1024 424 Left 2 !.model MYSW SW(Ron=1 Roff=1Meg Vt=.5 Vh=-.4)
