Version 4
SHEET 1 1732 1444
WIRE -576 -1152 -736 -1152
WIRE -448 -1152 -576 -1152
WIRE -288 -1152 -448 -1152
WIRE -160 -1152 -288 -1152
WIRE -160 -1136 -160 -1152
WIRE -576 -1120 -576 -1152
WIRE -736 -1040 -736 -1072
WIRE -608 -1040 -736 -1040
WIRE -288 -1024 -288 -1152
WIRE -736 -1008 -736 -1040
WIRE -448 -1008 -448 -1152
WIRE -576 -992 -576 -1040
WIRE -480 -992 -576 -992
WIRE -352 -976 -416 -976
WIRE -608 -960 -608 -1040
WIRE -480 -960 -608 -960
WIRE -576 -944 -576 -992
WIRE -16 -928 -128 -928
WIRE -128 -848 -128 -928
WIRE -96 -848 -128 -848
WIRE -736 -832 -736 -928
WIRE -576 -832 -576 -880
WIRE -576 -832 -736 -832
WIRE -448 -832 -448 -944
WIRE -448 -832 -576 -832
WIRE -288 -832 -288 -928
WIRE -288 -832 -448 -832
WIRE -16 -832 -16 -928
WIRE -16 -832 -32 -832
WIRE 112 -832 -16 -832
WIRE -288 -816 -288 -832
WIRE -96 -816 -288 -816
WIRE -288 -784 -288 -816
WIRE -64 -784 -64 -800
WIRE -48 -784 -64 -784
WIRE -288 -672 -288 -704
WIRE -288 -672 -336 -672
WIRE 592 -368 336 -368
WIRE 624 -368 592 -368
WIRE 336 -352 336 -368
WIRE 336 -352 288 -352
WIRE 288 -336 288 -352
WIRE 288 -336 -272 -336
WIRE -512 -304 -576 -304
WIRE 288 -272 -272 -272
WIRE 288 -256 288 -272
WIRE 336 -256 336 -272
WIRE 336 -256 288 -256
WIRE -576 -176 -576 -304
WIRE -224 -176 -576 -176
WIRE -96 -176 -144 -176
WIRE -80 -176 -96 -176
WIRE 48 -176 -16 -176
WIRE 336 -128 336 -256
WIRE -96 -64 -96 -176
WIRE -64 -64 -96 -64
WIRE 624 -64 624 -368
WIRE 48 -48 48 -176
WIRE 48 -48 0 -48
WIRE 80 -48 48 -48
WIRE 208 -48 160 -48
WIRE 288 -48 208 -48
WIRE -64 -32 -160 -32
WIRE -32 0 -32 -16
WIRE -16 0 -32 0
WIRE 208 16 208 -48
WIRE 784 64 784 16
WIRE 960 64 960 16
WIRE 208 160 208 96
WIRE 336 160 336 -32
WIRE 624 160 624 16
WIRE 784 160 784 144
WIRE 960 160 960 144
FLAG 336 160 0
FLAG 624 160 0
FLAG 784 160 0
FLAG 592 -368 VDD
FLAG 960 160 0
FLAG 960 16 +5V
FLAG -400 -400 -2V
FLAG -432 -400 -2V
FLAG -384 -240 -2V
FLAG -320 -400 +5V
FLAG -16 0 -2V
FLAG -32 -80 0
FLAG -48 -784 -2V
FLAG -64 -864 0
FLAG 784 16 -2V
FLAG 208 160 -2V
FLAG -160 -1136 0
FLAG -336 -672 -2V
FLAG 112 -832 -1.6VREF
FLAG -160 -32 -1.6VREF
SYMBOL nmos 288 -128 R0
SYMATTR InstName M1
SYMATTR Value GANFET
SYMATTR Prefix X1
SYMBOL voltage 624 -80 R0
WINDOW 123 0 0 Left 0
WINDOW 39 0 0 Left 0
SYMATTR InstName VDD
SYMATTR Value 10
SYMBOL res 320 -368 R0
SYMATTR InstName R1
SYMATTR Value 50m
SYMBOL voltage 784 48 R0
WINDOW 123 0 0 Left 0
WINDOW 39 0 0 Left 0
SYMATTR InstName VSS
SYMATTR Value -2
SYMBOL res -128 -192 R90
WINDOW 0 0 56 VBottom 2
WINDOW 3 32 56 VTop 2
SYMATTR InstName R2
SYMATTR Value 50k
SYMBOL cap -16 -192 R90
WINDOW 0 0 32 VBottom 2
WINDOW 3 32 32 VTop 2
SYMATTR InstName C1
SYMATTR Value 1000p
SYMBOL OpAmps\\LT6100 -400 -272 M0
SYMATTR InstName U2
SYMBOL voltage 960 48 R0
WINDOW 123 0 0 Left 0
WINDOW 39 0 0 Left 0
SYMATTR InstName VCC
SYMATTR Value 5
SYMBOL OpAmps\\UniversalOpAmp3 -32 -48 R0
SYMATTR InstName U1
SYMATTR Value2 Avol=1Meg GBW=3Meg Slew=3Meg
SYMATTR SpiceLine Ilimit=25m Rail=10m Vos=0 Phimargin=45
SYMBOL OpAmps\\UniversalOpAmp3 -64 -832 R0
SYMATTR InstName U4
SYMATTR Value2 Avol=1Meg GBW=3Meg Slew=3Meg
SYMATTR SpiceLine Ilimit=25m Rail=10m Vos=0 Phimargin=45
SYMBOL res 192 0 R0
SYMATTR InstName R6
SYMATTR Value 1k
SYMBOL res 176 -64 R90
WINDOW 0 0 56 VBottom 2
WINDOW 3 32 56 VTop 2
SYMATTR InstName R7
SYMATTR Value 49.9
SYMBOL References\\LT1004-1.2 -576 -912 M0
SYMATTR InstName U6
SYMBOL npn -352 -1024 R0
SYMATTR InstName Q1
SYMBOL res -592 -1136 R0
SYMATTR InstName R8
SYMATTR Value 60k
SYMBOL OpAmps\\UniversalOpAmp3 -448 -976 R0
SYMATTR InstName U7
SYMATTR Value2 Avol=1Meg GBW=3Meg Slew=3Meg
SYMATTR SpiceLine Ilimit=25m Rail=10m Vos=0 Phimargin=45
SYMBOL res -720 -1168 M0
SYMATTR InstName R10
SYMATTR Value 400
SYMBOL res -720 -1024 M0
SYMATTR InstName R11
SYMATTR Value 1.2k
SYMBOL res -304 -800 R0
SYMATTR InstName R9
SYMATTR Value 330
TEXT 1088 -512 Left 0 !.SUBCKT GANFET 1 2 3\n**************************************\n*      Model Generated by MODPEX     *\n*Copyright(c) Symmetry Design Systems*\n*         All Rights Reserved        *\n*    UNPUBLISHED LICENSED SOFTWARE   *\n*   Contains Proprietary Information *\n*      Which is The Property of      *\n*     SYMMETRY OR ITS LICENSORS      *\n*Commercial Use or Resale Restricted *\n*   by Symmetry License Agreement    *\n**************************************\n* Model generated on Mar 31, 04\n* MODEL FORMAT: SPICE3\n* Symmetry POWER MOS Model (Version 1.0)\n* External Node Designations\n* Node 1 -> Drain\n* Node 2 -> Gate\n* Node 3 -> Source\nM1 9 7 8 8 MM L=100u W=100u\n* Default values used in MM:\n* The voltage-dependent capacitances are\n* not included. Other default values are:\n*   RS=0 RD=0 LD=0 CBD=0 CBS=0 CGBO=0\n.MODEL MM NMOS LEVEL=1 IS=1e-32\n+VTO=-2.25 LAMBDA=0 KP=0.425\n+CGSO=1.79115e-07 CGDO=1.0724e-11\nRS 8 3 1.10523\nD1 3 1 MD\n.MODEL MD D IS=2.71011e-10 RS=0.0140826 N=1.5 BV=60\n+IBV=1e-05 EG=1.16084 XTI=3.00131 TT=0\n+CJO=3.41211e-11 VJ=4.67429 M=0.899864 FC=0.1\nRDS 0.1 1 2.4e+11\nRD 9 1 0.0001\nRG 2 7 2.18034\nD2 4 5 MD1\n* Default values used in MD1:\n*   RS=0 EG=1.11 XTI=3.0 TT=0\n*   BV=infinite IBV=1mA\n.MODEL MD1 D IS=1e-32 N=50\n+CJO=7.93181e-11 VJ=0.643298 M=0.9 FC=1e-08\nD3 0 5 MD2\n* Default values used in MD2:\n*   EG=1.11 XTI=3.0 TT=0 CJO=0\n*   BV=infinite IBV=1mA\n.MODEL MD2 D IS=1e-10 N=0.400165 RS=3.00002e-06\nRL 5 10 1\nFI2 7 9 VFI2 -1\nVFI2 4 0 0\nEV16 10 0 9 7 1\nCAP 11 10 1.58786e-10\nFI1 7 9 VFI1 -1\nVFI1 11 6 0\nRCAP 6 10 1\nD4 0 6 MD3\n* Default values used in MD3:\n*   EG=1.11 XTI=3.0 TT=0 CJO=0\n*   RS=0 BV=infinite IBV=1mA\n.MODEL MD3 D IS=1e-10 N=0.400165\n.ENDS GANFET
TEXT 640 256 Left 2 !.tran 0 100m 0
TEXT 1400 -512 Left 0 !.SUBCKT TLV431 A K Fdbk\nV_V2         N59715 A 1.24\nG_G4         K A TABLE { V(STAGE2, A) } \n+ ( (-10,0)(0,0)(15m,15m)(10,16m) )\nR_R1         A STAGE1  1  \nR_R2         A STAGE2  1  \nC_C2         A STAGE1  159e-6  \nC_C3         A STAGE2  80n  \nG_G1         A STAGE1 Fdbk N59715 4\nX_D1          A STAGE1 DC_1mV_1A_1V_1nA\nG_G3         A STAGE2 STAGE1 A 1\nX_D2          STAGE1 N59689 DC_1mV_1A_1V_1nA\nX_D3          A K DC_1mV_1A_1V_1nA\nV_V1         N59689 A 15m\n.ENDS TLV431\n*$\n.subckt DC_1mV_1A_1V_1nA A C\nG1 A C TABLE { V(A, C) } ( (-1,-1n)(0,0)(1m,1) (2m,10) (3m,1000) )\n.ends DC_1mV_1A_1V_1nA \n*$
TEXT 640 296 Left 2 !.lib opamp.sub
