Version 4
SHEET 1 1892 1572
WIRE 864 -432 864 -480
WIRE 1584 -320 1584 -480
WIRE 864 -304 864 -352
WIRE 1152 -304 864 -304
WIRE 1536 -304 1152 -304
WIRE 1584 -160 1584 -224
WIRE 1584 -160 1360 -160
WIRE 1584 -96 1584 -160
WIRE 1776 -96 1584 -96
WIRE 1824 -96 1776 -96
WIRE 864 -64 864 -304
WIRE 192 -48 192 -192
WIRE 1360 -48 1360 -160
WIRE 1584 -32 1584 -96
WIRE 816 16 336 16
WIRE 1152 32 1152 -304
WIRE 1312 32 1152 32
WIRE 1776 32 1776 -96
WIRE 192 80 192 32
WIRE 336 80 336 16
WIRE 336 80 192 80
WIRE 192 96 192 80
WIRE 560 144 560 112
WIRE 144 176 -384 176
WIRE -1408 240 -1408 208
WIRE 864 256 864 32
WIRE 1360 256 1360 48
WIRE 1584 256 1584 48
WIRE 1776 256 1776 96
WIRE 192 288 192 192
WIRE -384 352 -384 176
WIRE -1408 368 -1408 320
WIRE -1248 368 -1408 368
WIRE -1168 368 -1248 368
WIRE -1408 400 -1408 368
WIRE -1408 512 -1408 464
WIRE 880 576 208 576
WIRE 1056 576 880 576
WIRE -384 624 -384 432
WIRE -1248 704 -1248 368
WIRE -944 704 -1248 704
WIRE -688 720 -880 720
WIRE -944 736 -1072 736
WIRE -1072 768 -1072 736
WIRE -448 864 -464 864
WIRE 384 864 384 768
WIRE -1072 896 -1072 848
WIRE -464 896 -464 864
WIRE 880 896 880 576
WIRE 32 928 -64 928
WIRE 208 928 208 576
WIRE 208 928 112 928
WIRE 288 928 208 928
WIRE 576 928 480 928
WIRE -464 992 -464 976
WIRE 288 992 -464 992
WIRE -464 1024 -464 992
WIRE 576 1040 576 928
WIRE -512 1104 -1040 1104
WIRE -1040 1136 -1040 1104
WIRE -464 1216 -464 1120
WIRE 336 1216 336 1104
WIRE 336 1216 272 1216
WIRE 432 1232 432 1104
WIRE 576 1232 576 1120
WIRE 880 1232 880 960
WIRE -1040 1264 -1040 1216
FLAG 192 -192 +5V
FLAG -944 -176 +5V
FLAG -944 -96 0
FLAG -1088 -176 VDRAIN
FLAG -1088 -96 0
FLAG 1584 -480 VDRAIN
FLAG 192 288 0
FLAG 864 -480 VDRAIN
FLAG -384 624 0
FLAG 1584 256 0
FLAG 1824 -96 OUT
FLAG -800 -176 -2V
FLAG -800 -96 0
FLAG -64 928 -2V
FLAG 576 1232 0
FLAG 432 1232 0
FLAG 272 1216 -2V
FLAG 384 768 +5V
FLAG -464 1216 0
FLAG -1040 1264 0
FLAG -448 864 +5V
FLAG 880 1232 0
FLAG 1056 576 VGG
FLAG -1408 208 +5V
FLAG -1408 512 0
FLAG -1168 368 VENABLE_LM3880_SUPPLY_SEQUENCER
FLAG -1072 896 0
FLAG -912 752 +5V
FLAG -912 688 0
FLAG -688 720 SUPPLY_SEQUENCER_ENABLED
FLAG 864 256 0
FLAG 560 144 0
FLAG 1360 256 0
FLAG 1776 256 0
SYMBOL nmos 144 96 R0
SYMATTR InstName M1
SYMATTR Value 2N7002
SYMBOL nmos 816 -64 R0
SYMATTR InstName M2
SYMATTR Value 2N7002
SYMBOL pmos 1536 -224 M180
SYMATTR InstName M3
SYMATTR Value AONR21357
SYMBOL voltage -944 -192 R0
WINDOW 123 0 0 Left 0
WINDOW 39 0 0 Left 0
SYMATTR InstName V1
SYMATTR Value 5
SYMBOL voltage -1088 -192 R0
WINDOW 123 0 0 Left 0
WINDOW 39 0 0 Left 0
SYMATTR InstName V2
SYMATTR Value 8
SYMBOL res 848 -448 R0
SYMATTR InstName R1
SYMATTR Value 10k
SYMBOL voltage -384 336 R0
WINDOW 123 0 0 Left 0
WINDOW 39 0 0 Left 0
SYMATTR InstName V3
SYMATTR Value PULSE(5 0 540m 20u 20u 500m)
SYMBOL res 1568 -48 R0
SYMATTR InstName R2
SYMATTR Value {8/0.45}
SYMBOL voltage -800 -192 R0
WINDOW 123 0 0 Left 0
WINDOW 39 0 0 Left 0
SYMATTR InstName V4
SYMATTR Value PULSE(0 -2 420m 500u 500u 100)
SYMBOL res 128 912 R90
WINDOW 0 0 56 VBottom 2
WINDOW 3 32 56 VTop 2
SYMATTR InstName R3
SYMATTR Value 7k
SYMBOL res 560 1024 R0
SYMATTR InstName R4
SYMATTR Value 13k
SYMBOL nmos -512 1024 R0
SYMATTR InstName M4
SYMATTR Value 2N7002
SYMBOL voltage -1040 1120 R0
WINDOW 123 0 0 Left 0
WINDOW 39 0 0 Left 0
SYMATTR InstName V5
SYMATTR Value PULSE(5 0 660m 10u 10u 500m)
SYMBOL res -480 880 R0
SYMATTR InstName R5
SYMATTR Value 100k
SYMBOL cap 864 896 R0
SYMATTR InstName C1
SYMATTR Value 0.1µ
SYMBOL res -1424 224 R0
SYMATTR InstName R6
SYMATTR Value 5.49k
SYMBOL cap -1424 400 R0
SYMATTR InstName C2
SYMATTR Value 10µ
SYMBOL Switches\\ADG1401 384 976 R0
SYMATTR InstName U1
SYMBOL Comparators\\LTC6752 -912 784 M180
SYMATTR InstName U2
SYMBOL voltage -1072 752 R0
WINDOW 123 0 0 Left 0
WINDOW 39 0 0 Left 0
SYMATTR InstName V6
SYMATTR Value 1.25
SYMBOL res 176 -64 R0
SYMATTR InstName R7
SYMATTR Value 100k
SYMBOL nmos 1312 -48 R0
SYMATTR InstName M5
SYMATTR Value 2N7002
SYMBOL cap 1760 32 R0
SYMATTR InstName C3
SYMATTR Value 40µ
TEXT -1008 -8 Left 2 !.tran 0 10 0 startup
