Version 4
SHEET 1 3520 2532
WIRE -304 -128 -1072 -128
WIRE -80 -128 -304 -128
WIRE -1392 112 -1952 112
WIRE -1152 112 -1312 112
WIRE -1072 112 -1072 -128
WIRE -1072 112 -1152 112
WIRE -992 112 -1072 112
WIRE -848 112 -896 112
WIRE -832 112 -848 112
WIRE -736 112 -752 112
WIRE -624 112 -736 112
WIRE -352 112 -528 112
WIRE 256 112 -352 112
WIRE 304 112 256 112
WIRE 816 112 784 112
WIRE 992 112 816 112
WIRE 1056 112 992 112
WIRE -1952 128 -1952 112
WIRE 992 128 992 112
WIRE -1152 144 -1152 112
WIRE 256 160 256 112
WIRE 304 160 256 160
WIRE -544 176 -544 160
WIRE -384 176 -544 176
WIRE -304 176 -304 -128
WIRE -80 176 -80 -128
WIRE -544 208 -544 176
WIRE 816 208 816 112
WIRE 816 208 784 208
WIRE -1952 224 -1952 208
WIRE -1328 224 -1328 160
WIRE -1264 224 -1328 224
WIRE 992 224 992 192
WIRE -1264 240 -1264 224
WIRE 256 256 256 160
WIRE 304 256 256 256
WIRE -1152 272 -1152 224
WIRE -544 304 -544 288
WIRE 256 304 256 256
WIRE 304 304 256 304
WIRE -1376 352 -1376 160
WIRE -1264 352 -1264 320
WIRE -736 352 -736 112
WIRE -688 352 -736 352
WIRE -352 352 -352 112
WIRE -352 352 -400 352
WIRE 544 368 544 336
WIRE -848 432 -848 112
WIRE -688 432 -848 432
WIRE -80 464 -80 256
WIRE -912 512 -912 160
WIRE -688 512 -912 512
WIRE -304 512 -304 256
WIRE -304 512 -400 512
WIRE -256 512 -304 512
WIRE -144 512 -176 512
WIRE -688 576 -720 576
WIRE -384 624 -384 176
WIRE -544 656 -544 640
WIRE -80 672 -80 560
WIRE -384 752 -384 688
FLAG -1952 224 0
FLAG -544 656 0
FLAG -720 576 0
FLAG -384 752 0
FLAG 992 224 0
FLAG 544 368 0
FLAG -80 672 0
FLAG -1264 352 0
FLAG -1376 352 0
FLAG -1152 272 0
SYMBOL voltage -1952 112 R0
WINDOW 123 0 0 Left 2
WINDOW 39 0 0 Left 2
SYMATTR InstName V1
SYMATTR Value 5.2
SYMBOL res -848 128 R270
WINDOW 0 32 56 VTop 2
WINDOW 3 0 56 VBottom 2
SYMATTR InstName R19
SYMATTR Value 15m
SYMBOL pmos -992 160 R270
WINDOW 0 54 43 VTop 2
WINDOW 3 -13 76 VLeft 2
SYMATTR InstName Q1
SYMATTR Value FDS4953
SYMBOL res -64 272 R180
WINDOW 0 36 76 Left 2
WINDOW 3 36 40 Left 2
SYMATTR InstName R21
SYMATTR Value 10k
SYMBOL nmos -624 160 R270
WINDOW 0 74 50 VLeft 2
WINDOW 3 -14 71 VLeft 2
SYMATTR InstName Q2
SYMATTR Value Si4892DY
SYMBOL cap -400 624 R0
SYMATTR InstName C1
SYMATTR Value 0.1µ
SYMBOL cap 976 128 R0
SYMATTR InstName C2
SYMATTR Value 7.5m
SYMBOL PowerProducts\\LTC4376 544 208 R0
SYMATTR InstName U1
SYMBOL res -560 192 R0
SYMATTR InstName R1
SYMATTR Value 100
SYMBOL SpecialFunctions\\LTC4361-1 -544 480 R0
SYMATTR InstName U2
SYMBOL npn -144 464 R0
SYMATTR InstName Q3
SYMATTR Value 2N2222
SYMBOL res -320 272 M180
WINDOW 0 36 76 Left 2
WINDOW 3 36 40 Left 2
SYMATTR InstName R2
SYMATTR Value 10k
SYMBOL sw -1408 112 R270
SYMATTR InstName S1
SYMBOL voltage -1264 224 R0
WINDOW 123 0 0 Left 2
WINDOW 39 0 0 Left 2
SYMATTR InstName V2
SYMATTR Value PULSE(0 5 100m 1u 1u 2 1k)
SYMBOL res -1168 128 R0
SYMATTR InstName R3
SYMATTR Value 1Meg
SYMBOL res -160 496 R90
WINDOW 0 0 56 VBottom 2
WINDOW 3 32 56 VTop 2
SYMATTR InstName R4
SYMATTR Value 499
TEXT -64 1008 Left 2 ;Using the LTspice built-in directive ".softstart", you can reduce the softstart\ntime of some products models' internal softstart.  ".softstart 0.1" directs the\nmodel to execute its internal softstart in 10% of the true start-up time.
TEXT -64 968 Left 2 !.softstart .999
TEXT -64 928 Left 2 !.tran 15 startup
TEXT -1912 448 Left 2 !.model SW SW(Ron=10m, Roff=100Meg, Vt=1.0, Vh=-0.1)
