Version 4
SHEET 1 2136 680
WIRE 240 -16 96 -16
WIRE 256 -16 240 -16
WIRE 608 -16 528 -16
WIRE 800 -16 608 -16
WIRE 528 16 528 -16
WIRE 608 16 608 -16
WIRE 800 16 800 -16
WIRE 1040 16 992 16
WIRE 1168 16 1120 16
WIRE 1264 16 1168 16
WIRE 1376 16 1344 16
WIRE 992 48 992 16
WIRE 1200 64 1200 -16
WIRE 1168 80 1168 16
WIRE 1184 80 1168 80
WIRE 96 96 96 -16
WIRE 1376 96 1376 16
WIRE 1376 96 1248 96
WIRE 1552 96 1376 96
WIRE 608 112 608 80
WIRE 800 112 800 80
WIRE 800 112 608 112
WIRE 960 112 800 112
WIRE 1184 112 960 112
WIRE 608 144 608 112
WIRE 96 208 96 176
WIRE 320 240 304 240
WIRE 608 240 608 224
WIRE 608 240 320 240
WIRE 1200 240 1200 128
WIRE 1200 240 608 240
WIRE 304 256 304 240
WIRE 256 272 256 -16
WIRE 256 368 256 320
WIRE 304 368 304 336
FLAG 96 208 0
FLAG 256 368 0
FLAG 304 368 0
FLAG 528 16 0
FLAG 240 -16 +5V
FLAG 320 240 -2V
FLAG 1200 -16 +5V
FLAG 1552 96 VREF_-1.6V
FLAG 960 112 VREF_-1.25V
FLAG 992 48 0
SYMBOL voltage 96 80 M0
WINDOW 123 0 0 Left 0
WINDOW 39 0 0 Left 0
SYMATTR InstName V1
SYMATTR Value 5
SYMBOL e 304 240 R0
SYMATTR InstName E1
SYMATTR Value {-2.01/5}
SYMBOL References\\LT1634-1.25 608 48 R0
SYMATTR InstName U1
SYMBOL res 592 128 R0
SYMATTR InstName R1
SYMATTR Value 10k
SYMBOL cap 784 16 R0
SYMATTR InstName C1
SYMATTR Value 0.1µ
SYMBOL OpAmps\\ADA4807-1 1216 96 R0
SYMATTR InstName U2
SYMBOL res 1360 0 R90
WINDOW 0 0 56 VBottom 2
WINDOW 3 32 56 VTop 2
SYMATTR InstName R2
SYMATTR Value 2.8k
SYMBOL res 1136 0 R90
WINDOW 0 0 56 VBottom 2
WINDOW 3 32 56 VTop 2
SYMATTR InstName R3
SYMATTR Value 10k
TEXT 56 416 Left 2 !.tran 0 100m 0 startup
