Version 4
SHEET 1 1984 1160
WIRE -112 -672 -112 -736
WIRE 96 -672 96 -736
WIRE -112 -512 -112 -592
WIRE 96 -512 96 -592
WIRE 240 -224 224 -224
WIRE 336 -224 304 -224
WIRE 192 -112 -304 -112
WIRE 224 -112 224 -224
WIRE 224 -112 192 -112
WIRE 240 -112 224 -112
WIRE 336 -112 336 -224
WIRE 336 -112 320 -112
WIRE 352 -112 336 -112
WIRE 864 -112 352 -112
WIRE 864 -48 864 -112
WIRE -304 -32 -304 -112
WIRE 192 -32 192 -112
WIRE 352 -32 352 -112
WIRE 192 112 192 48
WIRE 352 112 352 48
WIRE 864 112 864 32
WIRE -304 128 -304 48
WIRE 144 240 -112 240
WIRE 608 240 400 240
WIRE 1920 272 880 272
WIRE 608 496 608 240
WIRE 752 496 608 496
WIRE 1920 496 1920 272
WIRE 272 576 272 368
WIRE 608 576 608 496
WIRE 880 576 880 272
WIRE 752 624 752 496
WIRE 752 624 672 624
WIRE 816 624 752 624
WIRE 608 800 608 672
WIRE 880 800 880 672
WIRE 1920 800 1920 576
FLAG 1920 800 0
FLAG -112 -512 0
FLAG -112 -736 VCC
FLAG -304 128 0
FLAG 96 -512 0
FLAG 96 -736 VEE
FLAG 880 800 0
FLAG 608 800 0
FLAG 272 576 0
FLAG -112 240 VCC
FLAG 864 112 0
SYMBOL npn 816 576 R0
SYMATTR InstName Q2
SYMBOL voltage 1920 480 R0
WINDOW 123 0 0 Left 0
WINDOW 39 0 0 Left 0
SYMATTR InstName V1
SYMATTR Value 2.5
SYMBOL current -304 48 R180
WINDOW 0 24 80 Left 2
WINDOW 3 24 0 Left 2
WINDOW 123 0 0 Left 0
WINDOW 39 0 0 Left 0
SYMATTR InstName I1
SYMATTR Value PULSE(1u 1.5u 100u 1n 1n 100n)
SYMBOL voltage -112 -688 M0
WINDOW 123 0 0 Left 0
WINDOW 39 0 0 Left 0
SYMATTR InstName VCC
SYMATTR Value 3.3
SYMBOL voltage 96 -688 M0
WINDOW 123 0 0 Left 0
WINDOW 39 0 0 Left 0
SYMATTR InstName VCC1
SYMATTR Value -3.3
SYMBOL npn 672 576 M0
SYMATTR InstName Q1
SYMBOL PowerProducts\\LT6105 272 240 R0
SYMATTR InstName U1
SYMBOL res 848 -64 R0
SYMATTR InstName R1
SYMATTR Value 100
SYMBOL res 336 -128 R90
WINDOW 0 0 56 VBottom 2
WINDOW 3 32 56 VTop 2
SYMATTR InstName R2
SYMATTR Value 100
SYMBOL res 336 -48 R0
SYMATTR InstName R3
SYMATTR Value 10
SYMBOL res 176 -48 R0
SYMATTR InstName R4
SYMATTR Value 10
SYMBOL cap 304 -240 R90
WINDOW 0 0 32 VBottom 2
WINDOW 3 32 32 VTop 2
SYMATTR InstName C1
SYMATTR Value 100µ
TEXT -824 -824 Left 2 !.tran 0 500u 0
