Version 4
SHEET 1 4624 2852
WIRE -720 -720 -720 -768
WIRE -720 -576 -720 -640
WIRE -496 -400 -608 -400
WIRE -320 -400 -416 -400
WIRE -1104 -336 -1456 -336
WIRE -1056 -336 -1104 -336
WIRE -944 -336 -992 -336
WIRE -880 -336 -944 -336
WIRE -784 -336 -816 -336
WIRE -1456 -320 -1456 -336
WIRE -720 -288 -720 -352
WIRE -944 -272 -944 -336
WIRE -608 -272 -608 -400
WIRE -480 -272 -608 -272
WIRE -320 -272 -320 -400
WIRE -320 -272 -416 -272
WIRE -1456 -224 -1456 -240
WIRE -1104 -208 -1104 -336
WIRE -1072 -208 -1104 -208
WIRE -768 -208 -816 -208
WIRE -1536 -128 -1680 -128
WIRE -1072 -128 -1536 -128
WIRE -784 -128 -784 -336
WIRE -784 -128 -816 -128
WIRE -720 -128 -720 -192
WIRE -720 -128 -784 -128
WIRE -608 -128 -608 -272
WIRE -608 -128 -720 -128
WIRE -576 -128 -608 -128
WIRE -464 -128 -496 -128
WIRE -320 -128 -320 -272
WIRE -320 -128 -384 -128
WIRE -288 -128 -320 -128
WIRE -240 -128 -288 -128
WIRE -128 -128 -160 -128
WIRE -16 -128 -128 -128
WIRE 128 -128 -16 -128
WIRE 256 -128 128 -128
WIRE 384 -128 256 -128
WIRE 592 -128 384 -128
WIRE 1280 -128 592 -128
WIRE -16 -112 -16 -128
WIRE 128 -112 128 -128
WIRE 256 -112 256 -128
WIRE 384 -112 384 -128
WIRE -1424 -48 -1680 -48
WIRE -1072 -48 -1424 -48
WIRE -768 -48 -816 -48
WIRE -720 -16 -720 -32
WIRE -16 -16 -16 -32
WIRE 128 -16 128 -32
WIRE 256 -16 256 -32
WIRE 384 -16 384 -32
WIRE 592 -16 592 -128
WIRE -944 32 -944 16
WIRE 1280 48 1280 -128
WIRE -1536 64 -1536 -128
WIRE -1424 64 -1424 -48
WIRE -128 64 -128 -128
WIRE -128 64 -256 64
WIRE -16 96 -16 64
WIRE 128 96 128 64
WIRE 256 96 256 64
WIRE 384 96 384 64
WIRE -16 192 -16 160
WIRE 128 192 128 160
WIRE 256 192 256 160
WIRE 384 192 384 160
WIRE 592 192 592 64
WIRE -1536 208 -1536 144
WIRE -1424 208 -1424 144
WIRE 1280 320 1280 128
WIRE 1216 368 1136 368
WIRE -128 384 -128 320
WIRE -288 432 -288 -128
WIRE -240 432 -288 432
WIRE 1280 448 1280 416
WIRE 1280 448 1248 448
WIRE -1520 464 -1520 400
WIRE 1280 464 1280 448
WIRE 32 512 -16 512
WIRE 208 512 112 512
WIRE 288 512 208 512
WIRE 208 560 208 512
WIRE -256 592 -256 64
WIRE -240 592 -256 592
WIRE 48 592 -16 592
WIRE 1280 592 1280 544
WIRE -1520 608 -1520 544
WIRE 992 624 992 608
WIRE 976 640 816 640
WIRE 1136 656 1136 368
WIRE 1136 656 1040 656
WIRE 688 672 576 672
WIRE 816 672 816 640
WIRE 816 672 768 672
WIRE 976 672 928 672
WIRE -128 688 -128 640
WIRE 48 688 48 592
WIRE 208 688 208 624
WIRE 576 704 576 672
WIRE 816 704 816 672
WIRE 992 704 992 688
WIRE 576 816 576 784
WIRE 816 816 816 784
WIRE 928 848 928 672
WIRE 1248 848 1248 448
WIRE 1248 848 928 848
FLAG -1520 608 0
FLAG -1520 400 VCC
FLAG -720 -768 VHIGH
FLAG -720 -576 0
FLAG -944 32 0
FLAG -720 -16 0
FLAG -720 -352 VHIGH
FLAG -1680 -48 TX_IN+
FLAG -1680 -128 TX_IN-
FLAG -16 192 0
FLAG -1536 208 0
FLAG -1424 208 0
FLAG -1456 -224 0
FLAG 128 192 0
FLAG 256 192 0
FLAG 384 192 0
FLAG -128 688 0
FLAG -128 320 VCC
FLAG 48 688 0
FLAG 288 512 OUT_CS
FLAG 208 688 0
FLAG 1280 592 0
FLAG 992 608 0
FLAG 992 704 VCC
FLAG 816 816 0
FLAG 576 816 0
FLAG 592 192 0
SYMBOL voltage -1520 448 M0
WINDOW 123 0 0 Left 0
WINDOW 39 0 0 Left 0
SYMATTR InstName V3
SYMATTR Value 3.3
SYMBOL voltage -720 -736 R0
WINDOW 123 0 0 Left 0
WINDOW 39 0 0 Left 0
SYMATTR InstName V4
SYMATTR Value 12
SYMBOL nmos -768 -288 R0
SYMATTR InstName Q9
SYMATTR Value IRF7468
SYMBOL nmos -768 -128 R0
SYMATTR InstName Q10
SYMATTR Value IRF7468
SYMBOL cap -816 -352 R90
WINDOW 0 0 32 VBottom 2
WINDOW 3 32 32 VTop 2
SYMATTR InstName C2
SYMATTR Value .1µ
SYMBOL schottky -1056 -320 R270
WINDOW 0 32 32 VTop 2
WINDOW 3 0 32 VBottom 2
SYMATTR InstName D2
SYMATTR Value 1N5819
SYMATTR Description Diode
SYMATTR Type diode
SYMBOL cap -32 96 R0
SYMATTR InstName C1
SYMATTR Value 1000pF
SYMBOL ind -480 -112 R270
WINDOW 0 32 56 VTop 2
WINDOW 3 5 56 VBottom 2
SYMATTR InstName L1
SYMATTR Value 47µH
SYMBOL voltage -1536 48 M0
WINDOW 123 0 0 Left 0
WINDOW 39 0 0 Left 0
SYMATTR InstName V6
SYMATTR Value PULSE(0 5 1500u 10n 10n 1.25u 2.5u {PWM_CYCLES})
SYMBOL voltage -1424 48 R0
WINDOW 123 0 0 Left 0
WINDOW 39 0 0 Left 0
SYMATTR InstName V7
SYMATTR Value PULSE(0 5 1501.25u 10n 10n 1.25u 2.5u {PWM_CYCLES})
SYMBOL voltage -1456 -336 R0
WINDOW 123 0 0 Left 0
WINDOW 39 0 0 Left 0
SYMATTR InstName V1
SYMATTR Value 5
SYMBOL PowerProducts\\LTC4444-5 -944 -128 R0
SYMATTR InstName U1
SYMBOL res -592 -112 R270
WINDOW 0 32 56 VTop 2
WINDOW 3 0 56 VBottom 2
SYMATTR InstName R1
SYMATTR Value 60m
SYMBOL cap 112 96 R0
SYMATTR InstName C4
SYMATTR Value 56pF
SYMBOL ind -32 -128 R0
SYMATTR InstName L3
SYMATTR Value 5n
SYMBOL ind 112 -128 R0
SYMATTR InstName L4
SYMATTR Value 1n
SYMBOL res 112 -32 R0
SYMATTR InstName R4
SYMATTR Value 100m
SYMBOL res -32 -32 R0
SYMATTR InstName R6
SYMATTR Value 50m
SYMBOL cap 240 96 R0
SYMATTR InstName C3
SYMATTR Value 100µF
SYMBOL ind 240 -128 R0
SYMATTR InstName L2
SYMATTR Value 5n
SYMBOL res 240 -32 R0
SYMATTR InstName R3
SYMATTR Value 50m
SYMBOL res -256 -112 R270
WINDOW 0 32 56 VTop 2
WINDOW 3 0 56 VBottom 2
SYMATTR InstName R5
SYMATTR Value 25m
SYMBOL cap 368 96 R0
SYMATTR InstName C5
SYMATTR Value 330µF
SYMBOL ind 368 -128 R0
SYMATTR InstName L5
SYMATTR Value 5n
SYMBOL res 368 -32 R0
SYMATTR InstName R7
SYMATTR Value 50m
SYMBOL Opamps\\LT1999-50 -128 512 R0
SYMATTR InstName U2
SYMBOL cap -416 -288 R90
WINDOW 0 0 32 VBottom 2
WINDOW 3 32 32 VTop 2
SYMATTR InstName C6
SYMATTR Value 12pF
SYMBOL res -400 -416 R90
WINDOW 0 0 56 VBottom 2
WINDOW 3 32 56 VTop 2
SYMATTR InstName R8
SYMATTR Value 30k
SYMBOL cap 192 560 R0
SYMATTR InstName C7
SYMATTR Value 1000pF
SYMBOL res 128 496 R90
WINDOW 0 0 56 VBottom 2
WINDOW 3 32 56 VTop 2
SYMATTR InstName R9
SYMATTR Value 49.9
SYMBOL res 1264 448 R0
SYMATTR InstName R10
SYMATTR Value 1
SYMBOL npn 1216 320 R0
SYMATTR InstName Q2
SYMATTR Value 2SCR586J
SYMBOL res 1264 32 R0
SYMATTR InstName R2
SYMATTR Value 1µ
SYMBOL res 800 688 R0
SYMATTR InstName R14
SYMATTR Value 10k
SYMBOL res 784 656 R90
WINDOW 0 0 56 VBottom 2
WINDOW 3 32 56 VTop 2
SYMATTR InstName R15
SYMATTR Value 50
SYMBOL voltage 576 688 M0
WINDOW 123 0 0 Left 0
WINDOW 39 0 0 Left 0
SYMATTR InstName V2
SYMATTR Value PULSE(0 2.5 2600u 10n 10n 1)
SYMBOL res 576 -32 R0
SYMATTR InstName R16
SYMATTR Value 50
SYMBOL Opamps\\LTC6252 1008 656 M180
SYMATTR InstName U3
TEXT -1536 680 Left 2 !.tran 0 10m 0
TEXT -1536 712 Left 2 !.model SW SW(Ron=0.1 Roff=100Meg Vt=0.5 Vh=-0.1)
TEXT -1544 776 Left 2 !.param PWM_CYCLES 4Meg
