Version 4
SHEET 1 1768 1012
WIRE -176 -128 -208 -128
WIRE 112 -128 -176 -128
WIRE 224 -128 112 -128
WIRE 352 -128 224 -128
WIRE 592 -128 352 -128
WIRE 880 -128 592 -128
WIRE 1184 -128 880 -128
WIRE 1472 -128 1184 -128
WIRE -368 -48 -368 -128
WIRE -176 -48 -176 -128
WIRE 112 -48 112 -128
WIRE 592 -48 592 -128
WIRE 880 -48 880 -128
WIRE 1184 -48 1184 -128
WIRE 1472 -48 1472 -128
WIRE 224 -32 224 -128
WIRE 352 0 352 -128
WIRE 112 64 112 32
WIRE 224 64 224 32
WIRE 224 64 112 64
WIRE 112 80 112 64
WIRE 592 80 592 32
WIRE 880 80 880 32
WIRE 1184 80 1184 32
WIRE 1472 80 1472 32
WIRE -368 112 -368 32
WIRE -176 112 -176 32
WIRE 352 128 352 80
WIRE 352 128 176 128
WIRE 496 128 352 128
WIRE 528 128 496 128
WIRE 816 128 720 128
WIRE 1120 128 1024 128
WIRE 1408 128 1312 128
WIRE 352 176 352 128
WIRE 112 224 112 176
WIRE 288 224 112 224
WIRE 496 224 496 128
WIRE 720 224 720 128
WIRE 720 224 496 224
WIRE 1024 224 1024 128
WIRE 1024 224 720 224
WIRE 1312 224 1312 128
WIRE 1312 224 1024 224
WIRE 592 288 592 176
WIRE 880 288 880 176
WIRE 880 288 592 288
WIRE 1184 288 1184 176
WIRE 1184 288 880 288
WIRE 1472 288 1472 176
WIRE 1472 288 1184 288
WIRE -208 352 -656 352
WIRE 112 352 112 224
WIRE -208 368 -208 352
WIRE 352 368 352 272
WIRE -224 384 -448 384
WIRE 48 400 -160 400
WIRE -224 416 -304 416
WIRE -208 448 -208 432
WIRE -448 480 -448 384
WIRE -304 528 -304 416
WIRE 112 528 112 448
WIRE 112 528 -304 528
WIRE 112 560 112 528
WIRE -656 704 -656 352
WIRE -448 704 -448 560
WIRE -448 704 -656 704
WIRE 112 704 112 640
WIRE 112 704 -448 704
WIRE 592 704 592 288
WIRE 768 704 592 704
WIRE 592 784 592 704
WIRE -656 928 -656 704
WIRE 592 992 592 864
FLAG -208 -128 VIN
FLAG 592 992 0
FLAG -176 112 0
FLAG -208 448 VCC
FLAG -368 -128 VCC
FLAG -368 112 0
FLAG 352 368 0
FLAG 768 704 SAS_OUT
FLAG -656 928 0
SYMBOL pnp 528 176 M180
SYMATTR InstName Q1
SYMATTR Value 2SAR542P
SYMBOL npn 48 352 R0
SYMATTR InstName Q3
SYMATTR Value 2N2222
SYMBOL res 96 -64 R0
SYMATTR InstName R1
SYMATTR Value 1k
SYMBOL res 576 -64 R0
SYMATTR InstName R2
SYMATTR Value 4
SYMBOL res 96 544 R0
SYMATTR InstName R3
SYMATTR Value 1k
SYMBOL res 576 768 R0
SYMATTR InstName R4
SYMATTR Value 5
SYMBOL voltage -448 464 M0
WINDOW 123 0 0 Left 0
WINDOW 39 0 0 Left 0
SYMATTR InstName V1
SYMATTR Value PULSE(0 3.3 1m 0.01u 0.01u 2500n 5000n 1)
SYMBOL voltage -176 -64 M0
WINDOW 123 0 0 Left 0
WINDOW 39 0 0 Left 0
SYMATTR InstName V2
SYMATTR Value 30
SYMBOL voltage -368 -64 M0
WINDOW 123 0 0 Left 0
WINDOW 39 0 0 Left 0
SYMATTR InstName V3
SYMATTR Value 5
SYMBOL Opamps\\LTC6252 -192 400 M180
SYMATTR InstName U1
SYMBOL pnp 176 176 R180
SYMATTR InstName Q2
SYMATTR Value 2N2907
SYMBOL pnp 288 272 M180
SYMATTR InstName Q4
SYMATTR Value 2N2907
SYMBOL res 864 -64 R0
SYMATTR InstName R5
SYMATTR Value 4
SYMBOL res 1168 -64 R0
SYMATTR InstName R6
SYMATTR Value 4
SYMBOL res 1456 -64 R0
SYMATTR InstName R7
SYMATTR Value 4
SYMBOL res 336 -16 R0
SYMATTR InstName R8
SYMATTR Value 1k
SYMBOL pnp 816 176 M180
SYMATTR InstName Q5
SYMATTR Value 2SAR542P
SYMBOL pnp 1120 176 M180
SYMATTR InstName Q6
SYMATTR Value 2SAR542P
SYMBOL pnp 1408 176 M180
SYMATTR InstName Q7
SYMATTR Value 2SAR542P
SYMBOL cap 208 -32 R0
SYMATTR InstName C2
SYMATTR Value 100p
TEXT -776 352 Left 2 !;dc V1 0.2 3.3 10m
TEXT -776 392 Left 2 !.tran 0 10m 0 startup
