Version 4
SHEET 1 1256 2468
WIRE -1632 112 -1680 112
WIRE -992 112 -1632 112
WIRE -960 112 -992 112
WIRE -720 112 -880 112
WIRE -576 112 -720 112
WIRE 752 112 -480 112
WIRE 896 112 832 112
WIRE 992 112 896 112
WIRE -1680 256 -1680 112
WIRE -720 272 -720 112
WIRE -992 336 -992 112
WIRE -928 336 -992 336
WIRE -768 336 -848 336
WIRE -560 336 -560 160
WIRE -560 336 -672 336
WIRE 896 384 896 112
WIRE 1184 432 960 432
WIRE -1680 496 -1680 336
WIRE -800 592 -800 544
WIRE 1184 656 1184 432
WIRE -800 720 -800 672
WIRE -704 720 -800 720
WIRE 896 720 896 480
WIRE -800 752 -800 720
WIRE -560 752 -560 336
WIRE -704 800 -704 720
WIRE -704 800 -736 800
WIRE -624 800 -704 800
WIRE -560 928 -560 848
WIRE -800 928 -800 848
WIRE -800 1040 -800 992
WIRE -560 1040 -560 1008
WIRE 896 1040 896 800
WIRE 1184 1040 1184 736
FLAG -1680 496 0
FLAG -1632 112 VIN
FLAG 992 112 VOUT
FLAG -800 1040 0
FLAG -800 544 VIN
FLAG -560 1040 0
FLAG 896 1040 0
FLAG 1184 1040 0
SYMBOL voltage -1680 240 R0
WINDOW 123 0 0 Left 0
WINDOW 39 0 0 Left 0
SYMATTR InstName V1
SYMATTR Value 35
SYMBOL res 736 128 R270
WINDOW 0 32 56 VTop 2
WINDOW 3 0 56 VBottom 2
SYMATTR InstName ROUT
SYMATTR Value 100m
SYMBOL res -976 128 R270
WINDOW 0 32 56 VTop 2
WINDOW 3 0 56 VBottom 2
SYMATTR InstName R3
SYMATTR Value 1
SYMBOL pnp -672 272 R90
SYMATTR InstName Q2
SYMATTR Value 2N2907
SYMBOL res -944 352 R270
WINDOW 0 32 56 VTop 2
WINDOW 3 0 56 VBottom 2
SYMATTR InstName R9
SYMATTR Value {Rset_Isc}
SYMBOL pmos -480 160 M270
SYMATTR InstName M3
SYMATTR Value FDC638P
SYMBOL npn -736 752 M0
SYMATTR InstName Q1
SYMATTR Value 2N2222
SYMBOL npn -624 752 R0
SYMATTR InstName Q5
SYMATTR Value 2N2222
SYMBOL res -816 576 R0
SYMATTR InstName R2
SYMATTR Value 20k
SYMBOL References\\LT1389-2.5 -800 960 R0
SYMATTR InstName U2
SYMBOL res -576 912 R0
SYMATTR InstName R10
SYMATTR Value 10k
SYMBOL pnp 960 480 R180
SYMATTR InstName Q6
SYMATTR Value 2SAR582D3
SYMBOL res 880 704 R0
SYMATTR InstName R8
SYMATTR Value 1k
SYMBOL voltage 1184 640 R0
WINDOW 123 0 0 Left 0
WINDOW 39 0 0 Left 0
SYMATTR InstName Vctl
SYMATTR Value 5
TEXT -1840 592 Left 2 !.dc Vctl 0 35 100m
TEXT -1840 616 Left 2 ;.dc V1 1 50 10m
TEXT -1840 648 Left 2 ;.step param Rset_Voc list 10 5k 10k
TEXT -1840 728 Left 2 !.step param Rset_Isc list 1 10 100 1k 5k 10k
TEXT -1840 768 Left 2 ;.param Rset_Isc = 10k
TEXT -1832 816 Left 2 !;tran 50m
TEXT -888 1192 Left 6 ;Isc Adjust:\n1A to 3A
TEXT -1840 872 Left 2 !.param Rset_Isc = 10k\n.param Rset_Voc = 10k
RECTANGLE Normal -352 1136 -1040 -32 2
