Version 4
SHEET 1 1344 1160
WIRE -784 144 -832 144
WIRE -672 144 -784 144
WIRE -176 144 -672 144
WIRE 112 144 80 144
WIRE 256 144 192 144
WIRE 592 144 256 144
WIRE 800 144 592 144
WIRE 896 144 800 144
WIRE 1264 144 976 144
WIRE -672 208 -672 144
WIRE 256 208 256 144
WIRE 592 256 592 144
WIRE -672 304 -672 272
WIRE -624 304 -672 304
WIRE -336 304 -368 304
WIRE -176 304 -336 304
WIRE -832 320 -832 144
WIRE -48 352 -48 240
WIRE 256 352 256 288
WIRE 256 352 -48 352
WIRE 256 400 256 352
WIRE 448 400 256 400
WIRE -336 416 -336 304
WIRE 592 464 592 336
WIRE 688 464 592 464
WIRE 800 496 800 144
WIRE -176 512 -176 304
WIRE 592 528 592 464
WIRE -496 576 -496 400
WIRE -496 576 -512 576
WIRE -400 576 -496 576
WIRE -336 576 -336 496
WIRE -336 576 -400 576
WIRE 448 576 448 400
WIRE 688 576 688 464
WIRE 752 576 688 576
WIRE -832 592 -832 400
WIRE -176 624 -176 592
WIRE 192 624 -176 624
WIRE 800 624 800 592
WIRE 800 624 512 624
WIRE 592 640 592 592
WIRE -512 672 -512 576
WIRE -400 672 -400 576
WIRE 800 688 800 624
WIRE -176 704 -176 624
WIRE 256 720 256 672
WIRE 448 720 448 672
WIRE 592 736 592 704
WIRE -512 848 -512 752
WIRE -400 848 -400 752
WIRE -176 848 -176 784
WIRE 256 848 256 800
WIRE 448 848 448 800
WIRE 592 848 592 816
WIRE 800 848 800 768
FLAG -832 592 0
FLAG 1264 144 VOUT
FLAG -784 144 VIN
FLAG 256 848 0
FLAG -176 848 0
FLAG -512 848 0
FLAG -400 848 0
FLAG 800 848 0
FLAG 448 848 0
FLAG 592 848 0
FLAG 256 576 0
SYMBOL LED -656 208 M0
SYMATTR InstName D1
SYMBOL voltage -832 304 M0
WINDOW 123 0 0 Left 0
WINDOW 39 0 0 Left 0
SYMATTR InstName VIN
SYMATTR Value 35
SYMBOL res 96 160 R270
WINDOW 0 32 56 VTop 2
WINDOW 3 0 56 VBottom 2
SYMATTR InstName R1
SYMATTR Value 0.4
SYMBOL res 240 192 R0
SYMATTR InstName R2
SYMATTR Value 1k
SYMBOL res 880 160 R270
WINDOW 0 32 56 VTop 2
WINDOW 3 0 56 VBottom 2
SYMATTR InstName R8
SYMATTR Value 1µ
SYMBOL npn 192 576 R0
SYMATTR InstName Q1
SYMATTR Value 2N2222
SYMBOL res 240 704 R0
SYMATTR InstName R4
SYMATTR Value 330
SYMBOL res -192 688 R0
SYMATTR InstName R5
SYMATTR Value 1k
SYMBOL res -192 496 R0
SYMATTR InstName R6
SYMATTR Value 1.5k
SYMBOL PowerProducts\\LT317A -496 304 R0
SYMATTR InstName U1
SYMBOL res -352 400 R0
SYMATTR InstName R7
SYMATTR Value 240
SYMBOL res -416 656 R0
SYMATTR InstName R9
SYMATTR Value 390
SYMBOL res -496 656 M0
SYMATTR InstName R10
SYMATTR Value {Rset_Isc}
SYMBOL nmos 752 496 R0
SYMATTR InstName M1
SYMATTR Value IRFP250N
SYMBOL res 784 672 R0
SYMATTR InstName R11
SYMATTR Value 3
SYMBOL npn 512 576 M0
SYMATTR InstName Q2
SYMATTR Value 2N2222
SYMBOL res 464 704 M0
SYMATTR InstName R12
SYMATTR Value 100
SYMBOL res 576 720 R0
SYMATTR InstName R13
SYMATTR Value 3k
SYMBOL diode 576 640 R0
SYMATTR InstName D2
SYMATTR Value 1N914
SYMBOL diode 576 528 R0
SYMATTR InstName D3
SYMATTR Value 1N914
SYMBOL res 608 240 M0
SYMATTR InstName R14
SYMATTR Value {Rset_Voc}
SYMBOL PowerProducts\\LT1083 -48 144 R0
SYMATTR InstName U3
TEXT -984 680 Left 2 !.tran 0 100u 0
TEXT -1256 744 Left 2 !.step param Rset_Voc list 10 1k 5k 10k
TEXT -1272 824 Left 2 !.param Rset_Isc=5k
