Version 4
SHEET 1 2960 900
WIRE 144 -784 -96 -784
WIRE 192 -784 144 -784
WIRE 832 -784 448 -784
WIRE 944 -784 832 -784
WIRE 1088 -784 1024 -784
WIRE 2608 -784 1088 -784
WIRE 1088 -656 1088 -784
WIRE 144 -592 144 -784
WIRE 400 -592 144 -592
WIRE 832 -592 832 -784
WIRE 832 -592 656 -592
WIRE 320 -400 320 -688
WIRE 528 -400 528 -496
WIRE 528 -400 320 -400
WIRE 144 -272 144 -592
WIRE 400 -272 144 -272
WIRE 832 -272 832 -592
WIRE 832 -272 656 -272
WIRE 320 -128 320 -400
WIRE 528 -128 528 -176
WIRE 528 -128 320 -128
WIRE 1088 -128 1088 -576
WIRE 1088 -128 528 -128
WIRE 1088 112 1088 -128
WIRE 1024 160 816 160
WIRE 2608 224 2608 -784
WIRE -96 240 -96 -784
WIRE 816 256 816 160
WIRE 1088 272 1088 208
WIRE 2896 304 2656 304
WIRE 2896 384 2896 304
WIRE 816 416 816 336
WIRE 1088 416 1088 352
WIRE 2608 432 2608 320
WIRE -96 576 -96 320
WIRE 2608 576 2608 512
WIRE 2896 576 2896 464
FLAG -96 576 0
FLAG 2608 576 0
FLAG 2896 576 0
FLAG 1088 416 0
FLAG 816 416 0
SYMBOL voltage -96 224 R0
WINDOW 123 0 0 Left 0
WINDOW 39 0 0 Left 0
SYMATTR InstName V1
SYMATTR Value 20
SYMBOL res 2592 416 R0
SYMATTR InstName R3
SYMATTR Value 1
SYMBOL voltage 2896 368 R0
WINDOW 123 0 0 Left 0
WINDOW 39 0 0 Left 0
SYMATTR InstName V2
SYMATTR Value 1.2
SYMBOL PowerProducts\\LT317A 528 -592 R0
SYMATTR InstName U1
SYMBOL res 928 -768 R270
WINDOW 0 32 56 VTop 2
WINDOW 3 0 56 VBottom 2
SYMATTR InstName R9
SYMATTR Value 0.33
SYMBOL res 1072 -672 R0
SYMATTR InstName R10
SYMATTR Value 1k
SYMBOL Custom_LTspice_sym\\Transistors\\nmos_with_body_diode 2656 224 M0
SYMATTR InstName M1
SYMATTR Value PSMN0R725YLD
SYMBOL PowerProducts\\LT317A 320 -784 R0
SYMATTR InstName U2
SYMBOL res 1072 256 R0
SYMATTR InstName R1
SYMATTR Value 330
SYMBOL npn 1024 112 R0
SYMATTR InstName Q1
SYMBOL voltage 816 240 R0
SYMATTR InstName V3
SYMATTR Value {VCTL}
SYMBOL PowerProducts\\LT317A 528 -272 R0
SYMATTR InstName U3
TEXT -248 616 Left 2 !;tran 0 10 0
TEXT -280 656 Left 2 !.dc V2 4 8 10m
TEXT 144 72 Left 2 !.step param Vctl list 0 500m 1 1.5
