Version 4
SHEET 1 1072 2468
WIRE -1632 112 -1680 112
WIRE -992 112 -1632 112
WIRE -880 112 -992 112
WIRE -720 112 -800 112
WIRE -576 112 -720 112
WIRE -416 112 -480 112
WIRE 752 112 -416 112
WIRE 928 112 832 112
WIRE 992 112 928 112
WIRE -1680 256 -1680 112
WIRE -720 272 -720 112
WIRE -992 336 -992 112
WIRE -928 336 -992 336
WIRE -768 336 -848 336
WIRE -560 336 -560 160
WIRE -560 336 -672 336
WIRE -416 336 -416 112
WIRE -1680 496 -1680 336
WIRE -800 592 -800 544
WIRE -416 672 -416 416
WIRE -800 720 -800 672
WIRE -704 720 -800 720
WIRE -800 752 -800 720
WIRE -560 752 -560 336
WIRE -704 800 -704 720
WIRE -704 800 -736 800
WIRE -624 800 -704 800
WIRE -560 896 -560 848
WIRE -416 896 -416 752
WIRE -416 896 -560 896
WIRE -800 928 -800 848
WIRE -560 928 -560 896
WIRE -800 1040 -800 992
WIRE -560 1040 -560 1008
WIRE 928 1104 928 112
WIRE 864 1152 448 1152
WIRE 448 1232 448 1152
WIRE 928 1280 928 1200
WIRE 448 1392 448 1312
WIRE 928 1392 928 1360
FLAG -1680 496 0
FLAG -1632 112 VIN
FLAG 992 112 VOUT
FLAG -800 1040 0
FLAG -800 544 VIN
FLAG -560 1040 0
FLAG 928 1392 0
FLAG 448 1392 0
SYMBOL voltage -1680 240 R0
WINDOW 123 0 0 Left 0
WINDOW 39 0 0 Left 0
SYMATTR InstName V1
SYMATTR Value 35
SYMBOL res 736 128 R270
WINDOW 0 32 56 VTop 2
WINDOW 3 0 56 VBottom 2
SYMATTR InstName ROUT
SYMATTR Value 1µ
SYMBOL res -896 128 R270
WINDOW 0 32 56 VTop 2
WINDOW 3 0 56 VBottom 2
SYMATTR InstName R3
SYMATTR Value 2
SYMBOL pnp -672 272 R90
SYMATTR InstName Q2
SYMATTR Value 2N2907
SYMBOL res -944 352 R270
WINDOW 0 32 56 VTop 2
WINDOW 3 0 56 VBottom 2
SYMATTR InstName R9
SYMATTR Value {Rset_Isc}
SYMBOL pmos -480 160 M270
SYMATTR InstName M3
SYMATTR Value FDC638P
SYMBOL npn -736 752 M0
SYMATTR InstName Q1
SYMATTR Value 2N2222
SYMBOL npn -624 752 R0
SYMATTR InstName Q5
SYMATTR Value 2N2222
SYMBOL res -816 576 R0
SYMATTR InstName R2
SYMATTR Value 20k
SYMBOL References\\LT1389-2.5 -800 960 R0
SYMATTR InstName U2
SYMBOL res -576 912 R0
SYMATTR InstName R10
SYMATTR Value 10k
SYMBOL npn 864 1104 R0
SYMATTR InstName Q7
SYMBOL res 912 1264 R0
SYMATTR InstName R8
SYMATTR Value 2
SYMBOL voltage 448 1216 R0
WINDOW 123 0 0 Left 0
WINDOW 39 0 0 Left 0
SYMATTR InstName Vctl
SYMATTR Value 2
SYMBOL res -432 656 R0
SYMATTR InstName R1
SYMATTR Value 10k
SYMBOL res -432 320 R0
SYMATTR InstName R4
SYMATTR Value {Rset_Voc}
TEXT -1840 592 Left 2 !.dc Vctl 1 5 10m
TEXT -1840 616 Left 2 ;.dc V1 1 50 10m
TEXT -1840 648 Left 2 ;.step param Rset_Voc list 10 5k 10k
TEXT -1840 728 Left 2 !.step param Rset_Isc list 1 10 100 1k 5k 10k
TEXT -1840 768 Left 2 ;.param Rset_Isc = 10k
TEXT -1832 816 Left 2 !;tran 50m
TEXT -888 1192 Left 6 ;Isc Adjust:\n1A to 3A
TEXT -1840 872 Left 2 !.param Rset_Isc = 10k\n.param Rset_Voc = 100k
RECTANGLE Normal -352 1136 -1040 -32 2
