Version 4
SHEET 1 3516 1412
WIRE 1568 112 1408 112
WIRE 1712 112 1648 112
WIRE 1920 112 1792 112
WIRE 1920 240 1920 112
WIRE 1920 240 1632 240
WIRE 1632 256 1632 240
WIRE -1216 288 -1328 288
WIRE -1088 288 -1136 288
WIRE -912 288 -1008 288
WIRE -800 288 -912 288
WIRE -432 288 -800 288
WIRE -384 288 -432 288
WIRE -240 288 -304 288
WIRE -112 288 -160 288
WIRE -1328 304 -1328 288
WIRE 240 304 80 304
WIRE 416 304 240 304
WIRE 592 304 416 304
WIRE 752 304 592 304
WIRE 928 304 752 304
WIRE 1088 304 928 304
WIRE 1312 304 1088 304
WIRE 1408 304 1408 112
WIRE 1408 304 1312 304
WIRE 1472 304 1408 304
WIRE -800 320 -800 288
WIRE 1920 320 1920 240
WIRE 1968 320 1920 320
WIRE 2064 320 2032 320
WIRE 2288 320 2064 320
WIRE 2464 320 2288 320
WIRE 1472 336 1472 304
WIRE 1584 336 1472 336
WIRE 2064 352 2064 320
WIRE 1472 368 1472 336
WIRE 1632 368 1632 352
WIRE 2464 368 2464 320
WIRE 2864 368 2464 368
WIRE 3056 368 2864 368
WIRE -1328 400 -1328 384
WIRE 240 400 240 304
WIRE 416 400 416 304
WIRE 592 400 592 304
WIRE 752 400 752 304
WIRE 928 400 928 304
WIRE 1088 400 1088 304
WIRE -800 416 -800 384
WIRE 2288 416 2288 320
WIRE 2464 416 2464 368
WIRE -432 432 -432 288
WIRE -400 432 -432 432
WIRE -112 432 -112 288
WIRE -112 432 -144 432
WIRE 2864 464 2864 368
WIRE 3056 464 3056 368
WIRE 1312 480 1312 304
WIRE 1392 480 1312 480
WIRE 2064 480 2064 432
WIRE 2064 480 1712 480
WIRE 2064 496 2064 480
WIRE -432 576 -432 432
WIRE -400 576 -432 576
WIRE 80 576 80 304
WIRE 80 576 -144 576
WIRE 240 576 240 464
WIRE 416 576 416 464
WIRE 592 576 592 464
WIRE 752 576 752 464
WIRE 928 576 928 464
WIRE 1088 576 1088 464
WIRE 2064 592 2064 576
WIRE 2288 592 2288 480
WIRE 2464 592 2464 480
WIRE 1472 608 1472 592
WIRE 1632 608 1632 592
WIRE 2864 624 2864 528
WIRE 3056 624 3056 528
WIRE -272 656 -272 640
WIRE 1472 688 1472 672
WIRE 2864 752 2864 704
WIRE 3056 752 3056 704
WIRE 3056 752 2864 752
WIRE 2864 784 2864 752
WIRE 2816 864 2512 864
WIRE 2512 896 2512 864
WIRE 2512 1024 2512 976
WIRE 2864 1024 2864 880
FLAG -1328 400 0
FLAG -912 288 IN
FLAG -800 416 0
FLAG 2864 1024 0
FLAG 2512 1024 0
FLAG 1472 688 0
FLAG 1632 608 0
FLAG 2064 592 0
FLAG 2288 592 0
FLAG 2464 592 0
FLAG 240 576 0
FLAG 416 576 0
FLAG 592 576 0
FLAG -272 656 0
FLAG 752 576 0
FLAG 928 576 0
FLAG 1088 576 0
SYMBOL voltage -1328 288 R0
WINDOW 123 0 0 Left 0
WINDOW 39 0 0 Left 0
SYMATTR InstName V1
SYMATTR Value 3
SYMBOL res -1120 272 R90
WINDOW 0 0 56 VBottom 2
WINDOW 3 32 56 VTop 2
SYMATTR InstName R2
SYMATTR Value 50m
SYMBOL ind -1104 304 R270
WINDOW 0 32 56 VTop 2
WINDOW 3 5 56 VBottom 2
SYMATTR InstName L2
SYMATTR Value 200n
SYMBOL cap -816 320 R0
SYMATTR InstName C2
SYMATTR Value 10µ
SYMBOL res 2848 608 R0
SYMATTR InstName R4
SYMATTR Value 35
SYMBOL cap 2848 464 R0
SYMATTR InstName C4
SYMATTR Value 0.3µF
SYMBOL Custom_LTspice_sym\\Transistors\\nmos_with_body_diode 2816 784 R0
SYMATTR InstName M1
SYMATTR Value BSZ0920NS
SYMBOL voltage 2512 880 M0
WINDOW 123 0 0 Left 0
WINDOW 39 0 0 Left 0
SYMATTR InstName V2
SYMATTR Value PULSE(0 5 35m 10n 10n 15m)
SYMBOL PowerProducts\\LT8330 1552 480 R0
SYMATTR InstName U2
SYMBOL cap 1456 608 R0
SYMATTR InstName C5
SYMATTR Value 1µ
SYMBOL res 2048 336 R0
SYMATTR InstName R5
SYMATTR Value 2Meg
SYMBOL res 2048 480 R0
SYMATTR InstName R6
SYMATTR Value 100k
SYMBOL cap 2272 416 R0
SYMATTR InstName C6
SYMATTR Value 10µF
SYMATTR SpiceLine Rser=10m
SYMBOL schottky 1968 336 R270
WINDOW 0 32 32 VTop 2
WINDOW 3 0 32 VBottom 2
SYMATTR InstName D1
SYMATTR Value BAT46WJ
SYMATTR Description Diode
SYMATTR Type diode
SYMBOL cap 2448 416 R0
SYMATTR InstName C8
SYMATTR Value 10µF
SYMATTR SpiceLine Rser=10m
SYMBOL ind 1552 128 R270
WINDOW 0 32 56 VTop 2
WINDOW 3 5 56 VBottom 2
SYMATTR InstName L3
SYMATTR Value 3.3µH
SYMBOL res 1808 96 R90
WINDOW 0 0 56 VBottom 2
WINDOW 3 32 56 VTop 2
SYMATTR InstName R1
SYMATTR Value 500m
SYMBOL cap 224 400 R0
SYMATTR InstName C3
SYMATTR Value 10µF
SYMATTR SpiceLine Rser=10m
SYMBOL cap 400 400 R0
SYMATTR InstName C7
SYMATTR Value 10µF
SYMATTR SpiceLine Rser=10m
SYMBOL cap 576 400 R0
SYMATTR InstName C9
SYMATTR Value 100µF
SYMATTR SpiceLine Rser=10m
SYMBOL PowerProducts\\LTC3525-5 -272 480 R0
SYMATTR InstName U3
SYMBOL ind -400 304 R270
WINDOW 0 32 56 VTop 2
WINDOW 3 5 56 VBottom 2
SYMATTR InstName L1
SYMATTR Value 3.3µH
SYMBOL res -144 272 R90
WINDOW 0 0 56 VBottom 2
WINDOW 3 32 56 VTop 2
SYMATTR InstName R3
SYMATTR Value 500m
SYMBOL cap 736 400 R0
SYMATTR InstName C1
SYMATTR Value 100µF
SYMATTR SpiceLine Rser=10m
SYMBOL res 3040 608 R0
SYMATTR InstName R7
SYMATTR Value 35
SYMBOL cap 3040 464 R0
SYMATTR InstName C10
SYMATTR Value 0.3µF
SYMBOL cap 912 400 R0
SYMATTR InstName C11
SYMATTR Value 100µF
SYMATTR SpiceLine Rser=10m
SYMBOL cap 1072 400 R0
SYMATTR InstName C12
SYMATTR Value 100µF
SYMATTR SpiceLine Rser=10m
SYMBOL nmos 1584 256 R0
SYMATTR InstName M2
SYMATTR Value IPP084N06L3
TEXT -752 -432 Left 2 !.tran 50m
