Version 4
SHEET 1 2624 680
WIRE -1264 -1440 -1264 -1520
WIRE -1312 -1424 -1472 -1424
WIRE -1664 -1344 -1664 -1472
WIRE -1856 -1312 -1856 -1472
WIRE -1264 -1296 -1264 -1344
WIRE 1664 -1296 -1264 -1296
WIRE -1664 -1184 -1664 -1264
WIRE -1472 -1184 -1472 -1424
WIRE -1472 -1184 -1664 -1184
WIRE -1856 -1120 -1856 -1248
WIRE -1664 -1120 -1664 -1184
WIRE -1664 -1120 -1856 -1120
WIRE -2576 -896 -2576 -1024
WIRE -1664 -720 -1664 -1120
WIRE -2576 -704 -2576 -816
WIRE 1664 -608 1664 -1296
WIRE 1760 -608 1664 -608
WIRE 2448 -608 1840 -608
WIRE -1664 -528 -1664 -640
WIRE 2448 -480 2448 -608
WIRE -1712 -448 -1872 -448
WIRE -1872 -416 -1872 -448
WIRE 2448 -352 2448 -416
WIRE -1872 -256 -1872 -336
WIRE -1664 -256 -1664 -432
WIRE 2448 -208 2448 -272
WIRE 2400 -128 2096 -128
WIRE 2096 -48 2096 -128
WIRE -16 0 -128 0
WIRE 224 0 -16 0
WIRE -16 32 -16 0
WIRE -720 96 -720 -48
WIRE 224 112 224 0
WIRE 2096 128 2096 32
WIRE 2448 128 2448 -112
WIRE -16 160 -16 112
WIRE 160 160 -16 160
WIRE -16 192 -16 160
WIRE -720 320 -720 176
WIRE -16 320 -16 272
WIRE 224 320 224 208
WIRE 432 320 224 320
WIRE 1664 320 1664 -608
WIRE 1664 320 432 320
WIRE 224 368 224 320
WIRE 432 368 432 320
WIRE 224 496 224 448
WIRE 432 496 432 432
FLAG -16 320 0
FLAG -128 0 VCC
FLAG 224 496 0
FLAG -720 -48 VCC
FLAG -720 320 0
FLAG 432 496 0
FLAG 2448 128 0
FLAG 2096 128 0
FLAG -1872 -256 0
FLAG -1664 -256 0
FLAG -2576 -704 0
FLAG -2576 -1024 VHIGH
FLAG -1664 -1472 VHIGH
FLAG -1264 -1520 VHIGH
FLAG -1856 -1472 VHIGH
SYMBOL npn 160 112 R0
SYMATTR InstName Q1
SYMATTR Value 2N2219A
SYMBOL res -32 16 R0
SYMATTR InstName R1
SYMATTR Value 200k
SYMBOL res -32 176 R0
SYMATTR InstName R2
SYMATTR Value 49.9k
SYMBOL res 208 352 R0
SYMATTR InstName R3
SYMATTR Value 10k
SYMBOL voltage -720 80 R0
WINDOW 123 0 0 Left 0
WINDOW 39 0 0 Left 0
SYMATTR InstName V1
SYMATTR Value 5
SYMBOL cap 416 368 R0
SYMATTR InstName C1
SYMATTR Value 10µF
SYMBOL res 1856 -624 R90
WINDOW 0 0 56 VBottom 2
WINDOW 3 32 56 VTop 2
SYMATTR InstName R4
SYMATTR Value 1
SYMBOL res 2432 -256 M180
WINDOW 0 36 76 Left 2
WINDOW 3 36 40 Left 2
SYMATTR InstName R5
SYMATTR Value 100
SYMBOL cap 2432 -480 R0
SYMATTR InstName C2
SYMATTR Value 1µF
SYMBOL Custom_LTspice_sym\\Transistors\\nmos_with_body_diode 2400 -208 R0
SYMATTR InstName M1
SYMATTR Value AOD66406
SYMBOL voltage 2096 -64 M0
WINDOW 123 0 0 Left 0
WINDOW 39 0 0 Left 0
SYMATTR InstName V2
SYMATTR Value PULSE(0 5 0 1u 1u 100m 200m)
SYMBOL voltage -1872 -432 M0
WINDOW 123 0 0 Left 0
WINDOW 39 0 0 Left 0
SYMATTR InstName V3
SYMATTR Value PULSE(0 5 5 1u 1u)
SYMBOL nmos -1712 -528 R0
SYMATTR InstName M2
SYMATTR Value IRFP2907
SYMBOL res -1680 -736 R0
SYMATTR InstName R6
SYMATTR Value 10k
SYMBOL res -1680 -1360 R0
SYMATTR InstName R7
SYMATTR Value 10k
SYMBOL voltage -2576 -912 M0
WINDOW 123 0 0 Left 0
WINDOW 39 0 0 Left 0
SYMATTR InstName V4
SYMATTR Value 35
SYMBOL zener -1840 -1248 R180
WINDOW 0 24 64 Left 2
WINDOW 3 24 0 Left 2
SYMATTR InstName D1
SYMATTR Value 1N750
SYMATTR Description Diode
SYMATTR Type diode
SYMBOL Custom_LTspice_sym\\Transistors\\pmos_with_body_diode -1312 -1344 M180
SYMATTR InstName M3
SYMATTR Value Si7469DP
TEXT -542 520 Left 2 !.tran 0 10 0
