Version 4
SHEET 1 4624 2852
WIRE 512 -1296 512 -1328
WIRE 512 -1296 -16 -1296
WIRE 512 -1216 512 -1296
WIRE 512 -1056 512 -1136
WIRE -1456 -336 -1456 -416
WIRE -1104 -336 -1456 -336
WIRE -1056 -336 -1104 -336
WIRE -944 -336 -992 -336
WIRE -880 -336 -944 -336
WIRE -784 -336 -816 -336
WIRE 304 -336 272 -336
WIRE 432 -336 368 -336
WIRE 480 -336 432 -336
WIRE 592 -336 544 -336
WIRE 944 -336 592 -336
WIRE -1456 -320 -1456 -336
WIRE -720 -288 -720 -352
WIRE 208 -288 208 -352
WIRE -944 -272 -944 -336
WIRE 432 -272 432 -336
WIRE -2496 -240 -3072 -240
WIRE -2160 -240 -2448 -240
WIRE -2448 -224 -2448 -240
WIRE -1456 -224 -1456 -240
WIRE -2496 -208 -2496 -240
WIRE -1104 -208 -1104 -336
WIRE -1072 -208 -1104 -208
WIRE -768 -208 -816 -208
WIRE 304 -208 256 -208
WIRE 592 -208 592 -336
WIRE 592 -208 560 -208
WIRE -720 -176 -720 -192
WIRE -560 -176 -720 -176
WIRE -400 -176 -560 -176
WIRE -192 -176 -320 -176
WIRE -128 -176 -192 -176
WIRE -96 -176 -128 -176
WIRE 48 -176 -16 -176
WIRE 208 -176 208 -192
WIRE 208 -176 48 -176
WIRE -2496 -128 -2496 -160
WIRE -2448 -128 -2448 -144
WIRE -1072 -128 -1680 -128
WIRE -784 -128 -784 -336
WIRE -784 -128 -816 -128
WIRE -720 -128 -720 -176
WIRE -720 -128 -784 -128
WIRE 208 -128 208 -176
WIRE 272 -128 272 -336
WIRE 272 -128 208 -128
WIRE 304 -128 272 -128
WIRE 1248 -128 560 -128
WIRE -3072 -80 -3072 -240
WIRE -3072 -80 -3376 -80
WIRE -2752 -80 -3072 -80
WIRE -2880 -48 -2880 -112
WIRE -1072 -48 -1680 -48
WIRE -768 -48 -816 -48
WIRE 304 -48 256 -48
WIRE 1136 -48 560 -48
WIRE -720 -16 -720 -32
WIRE 208 -16 208 -32
WIRE -3600 0 -3808 0
WIRE -3296 0 -3296 -208
WIRE -3296 0 -3376 0
WIRE -2672 0 -2672 -32
WIRE -2752 16 -2752 -80
WIRE -2704 16 -2752 16
WIRE -2496 32 -2640 32
WIRE -2112 32 -2448 32
WIRE -944 32 -944 16
WIRE 432 32 432 16
WIRE -2880 48 -2880 32
WIRE -2704 48 -2880 48
WIRE -2448 48 -2448 32
WIRE -2496 64 -2496 32
WIRE -560 64 -560 -176
WIRE -480 64 -560 64
WIRE -352 64 -416 64
WIRE -192 64 -192 -176
WIRE -192 64 -272 64
WIRE -3600 80 -3712 80
WIRE -3296 80 -3376 80
WIRE -2880 80 -2880 48
WIRE -2672 80 -2672 64
WIRE -3712 96 -3712 80
WIRE -2496 144 -2496 112
WIRE -2448 144 -2448 128
WIRE -2880 192 -2880 160
WIRE -3808 224 -3808 0
WIRE -3712 224 -3712 176
WIRE -3296 224 -3296 80
WIRE 48 384 48 -176
WIRE 48 384 -160 384
WIRE -1520 416 -1520 400
WIRE -1168 416 -1520 416
WIRE -976 416 -1120 416
WIRE -1520 464 -1520 416
WIRE -1120 480 -1120 416
WIRE -1168 496 -1168 416
WIRE -1520 608 -1520 544
WIRE -1168 608 -1168 544
WIRE -1120 608 -1120 560
WIRE -128 640 -128 -176
WIRE 720 640 -128 640
WIRE 912 720 912 704
WIRE -160 768 -160 384
WIRE 688 768 -160 768
WIRE 1168 768 1104 768
WIRE 720 832 720 640
WIRE 752 832 720 832
WIRE 1280 848 1104 848
WIRE 688 864 688 768
WIRE 752 864 688 864
WIRE 1168 896 1104 896
WIRE 848 1024 848 1008
WIRE 912 1024 912 1008
FLAG -1520 608 0
FLAG -1520 400 VCC
FLAG -944 32 0
FLAG -720 -16 0
FLAG -1680 -48 TX_IN+
FLAG -1680 -128 TX_IN-
FLAG -1456 -224 0
FLAG 432 32 0
FLAG 208 -16 0
FLAG 512 -1056 0
FLAG -1456 -416 +5V
FLAG 944 -336 +5V
FLAG 512 -1328 VBRDG
FLAG -720 -352 VBRDG
FLAG 208 -352 VBRDG
FLAG -1168 608 0
FLAG -1120 608 0
FLAG -976 416 VREF
FLAG 912 1024 0
FLAG 912 704 VCC
FLAG 848 1024 VREF
FLAG 1280 848 OUT_CURR_SENSE
FLAG -3808 224 0
FLAG -3296 -208 VCC
FLAG -3296 224 0
FLAG -3712 224 0
FLAG -2672 80 0
FLAG -2672 -32 VCC
FLAG -2880 192 0
FLAG -2880 -112 VCC
FLAG -2112 32 TX_IN-
FLAG -2160 -240 TX_IN+
FLAG 1248 -128 TX_IN+
FLAG 1136 -48 TX_IN-
FLAG -2496 -128 0
FLAG -2448 -128 0
FLAG -2496 144 0
FLAG -2448 144 0
SYMBOL voltage -1520 448 M0
WINDOW 123 0 0 Left 0
WINDOW 39 0 0 Left 0
SYMATTR InstName V3
SYMATTR Value 3.3
SYMBOL nmos -768 -288 R0
SYMATTR InstName Q9
SYMATTR Value IRF7468
SYMBOL nmos -768 -128 R0
SYMATTR InstName Q10
SYMATTR Value IRF7468
SYMBOL cap -816 -352 R90
WINDOW 0 0 32 VBottom 2
WINDOW 3 32 32 VTop 2
SYMATTR InstName C2
SYMATTR Value 1µ
SYMBOL schottky -1056 -320 R270
WINDOW 0 32 32 VTop 2
WINDOW 3 0 32 VBottom 2
SYMATTR InstName D2
SYMATTR Value 1N5819
SYMATTR Description Diode
SYMATTR Type diode
SYMBOL voltage -1456 -336 R0
WINDOW 123 0 0 Left 0
WINDOW 39 0 0 Left 0
SYMATTR InstName V1
SYMATTR Value 5
SYMBOL PowerProducts\\LTC4444-5 -944 -128 R0
SYMATTR InstName U1
SYMBOL nmos 256 -288 M0
SYMATTR InstName Q1
SYMATTR Value IRF7468
SYMBOL nmos 256 -128 M0
SYMATTR InstName Q2
SYMATTR Value IRF7468
SYMBOL cap 304 -352 M90
WINDOW 0 0 32 VBottom 2
WINDOW 3 32 32 VTop 2
SYMATTR InstName C1
SYMATTR Value 1µ
SYMBOL schottky 544 -320 M270
WINDOW 0 32 32 VTop 2
WINDOW 3 0 32 VBottom 2
SYMATTR InstName D1
SYMATTR Value 1N5819
SYMATTR Description Diode
SYMATTR Type diode
SYMBOL PowerProducts\\LTC4444-5 432 -128 M0
SYMATTR InstName U2
SYMBOL cap -416 48 R90
WINDOW 0 0 32 VBottom 2
WINDOW 3 32 32 VTop 2
SYMATTR InstName C3
SYMATTR Value 0.1µF
SYMBOL res -304 -192 R90
WINDOW 0 0 56 VBottom 2
WINDOW 3 32 56 VTop 2
SYMATTR InstName R1
SYMATTR Value 100k
SYMBOL voltage 512 -1232 R0
WINDOW 123 0 0 Left 0
WINDOW 39 0 0 Left 0
SYMATTR InstName V9
SYMATTR Value 45
SYMBOL res -256 48 R90
WINDOW 0 0 56 VBottom 2
WINDOW 3 32 56 VTop 2
SYMATTR InstName R5
SYMATTR Value 100
SYMBOL res 0 -192 R90
WINDOW 0 0 56 VBottom 2
WINDOW 3 32 56 VTop 2
SYMATTR InstName R6
SYMATTR Value 1m
SYMBOL Opamps\\LT1990 928 848 R0
SYMATTR InstName U3
SYMBOL e -1120 464 R0
SYMATTR InstName E1
SYMATTR Value 0.5
SYMBOL SpecialFunctions\\LTC6995-1 -3488 0 R0
SYMATTR InstName U4
SYMBOL res -3728 80 R0
SYMATTR InstName R7
SYMATTR Value 600k
SYMBOL Comparators\\LTC6752 -2672 -32 R0
SYMATTR InstName U5
SYMBOL res -2896 64 R0
SYMATTR InstName R8
SYMATTR Value 100k
SYMBOL res -2896 -64 R0
SYMATTR InstName R9
SYMATTR Value 100k
SYMBOL e -2448 -240 R0
SYMATTR InstName E2
SYMATTR Value {5/3.3}
SYMBOL e -2448 32 R0
SYMATTR InstName E3
SYMATTR Value {5/3.3}
TEXT -1536 680 Left 2 !.tran 0 100m 0
TEXT -1536 712 Left 2 !.model SW SW(Ron=0.1 Roff=100Meg Vt=0.5 Vh=-0.1)
TEXT -1544 776 Left 2 !.param PWM_CYCLES 150
