Version 4
SHEET 1 4624 2852
WIRE -16 -1296 -176 -1296
WIRE 512 -1296 512 -1328
WIRE 512 -1296 -16 -1296
WIRE 512 -1216 512 -1296
WIRE -176 -1184 -176 -1296
WIRE -16 -1088 -16 -1296
WIRE -176 -1056 -176 -1104
WIRE -176 -1056 -1216 -1056
WIRE 512 -1056 512 -1136
WIRE -176 -1040 -176 -1056
WIRE -80 -1040 -176 -1040
WIRE -1216 -1008 -1216 -1056
WIRE -1216 -1008 -1840 -1008
WIRE -176 -1008 -176 -1040
WIRE -1840 -976 -1840 -1008
WIRE -16 -928 -16 -992
WIRE 144 -928 -16 -928
WIRE 384 -928 224 -928
WIRE -176 -896 -176 -944
WIRE -16 -848 -16 -928
WIRE -1840 -832 -1840 -896
WIRE -176 -800 -176 -832
WIRE -80 -800 -176 -800
WIRE -176 -784 -176 -800
WIRE -176 -672 -176 -704
WIRE -16 -672 -16 -752
WIRE -1456 -336 -1456 -416
WIRE -1104 -336 -1456 -336
WIRE -1056 -336 -1104 -336
WIRE -944 -336 -992 -336
WIRE -880 -336 -944 -336
WIRE -784 -336 -816 -336
WIRE 304 -336 272 -336
WIRE 432 -336 368 -336
WIRE 480 -336 432 -336
WIRE 592 -336 544 -336
WIRE 944 -336 592 -336
WIRE -1456 -320 -1456 -336
WIRE -720 -288 -720 -352
WIRE 208 -288 208 -352
WIRE -944 -272 -944 -336
WIRE 432 -272 432 -336
WIRE -1456 -224 -1456 -240
WIRE -1104 -208 -1104 -336
WIRE -1072 -208 -1104 -208
WIRE -768 -208 -816 -208
WIRE 304 -208 256 -208
WIRE 592 -208 592 -336
WIRE 592 -208 560 -208
WIRE -720 -176 -720 -192
WIRE -560 -176 -720 -176
WIRE -400 -176 -560 -176
WIRE -192 -176 -320 -176
WIRE -128 -176 -192 -176
WIRE -96 -176 -128 -176
WIRE 48 -176 -16 -176
WIRE 208 -176 208 -192
WIRE 208 -176 48 -176
WIRE -1536 -128 -1680 -128
WIRE -1072 -128 -1536 -128
WIRE -784 -128 -784 -336
WIRE -784 -128 -816 -128
WIRE -720 -128 -720 -176
WIRE -720 -128 -784 -128
WIRE 208 -128 208 -176
WIRE 272 -128 272 -336
WIRE 272 -128 208 -128
WIRE 304 -128 272 -128
WIRE 1248 -128 560 -128
WIRE -1424 -48 -1680 -48
WIRE -1072 -48 -1424 -48
WIRE -768 -48 -816 -48
WIRE 304 -48 256 -48
WIRE 1136 -48 560 -48
WIRE -720 -16 -720 -32
WIRE 208 -16 208 -32
WIRE -944 32 -944 16
WIRE 432 32 432 16
WIRE -1536 64 -1536 -128
WIRE -1424 64 -1424 -48
WIRE -560 64 -560 -176
WIRE -480 64 -560 64
WIRE -352 64 -416 64
WIRE -192 64 -192 -176
WIRE -192 64 -272 64
WIRE -1536 208 -1536 144
WIRE -1424 208 -1424 144
WIRE 1136 272 1136 -48
WIRE 1248 272 1248 -128
WIRE 48 384 48 -176
WIRE 48 384 -160 384
WIRE -1520 416 -1520 400
WIRE -1168 416 -1520 416
WIRE -976 416 -1120 416
WIRE 1136 416 1136 352
WIRE 1248 416 1248 352
WIRE -1520 464 -1520 416
WIRE -1120 480 -1120 416
WIRE -1168 496 -1168 416
WIRE -1520 608 -1520 544
WIRE -1168 608 -1168 544
WIRE -1120 608 -1120 560
WIRE -128 640 -128 -176
WIRE 720 640 -128 640
WIRE 912 720 912 704
WIRE -160 768 -160 384
WIRE 688 768 -160 768
WIRE 1168 768 1104 768
WIRE 720 832 720 640
WIRE 752 832 720 832
WIRE 1280 848 1104 848
WIRE 688 864 688 768
WIRE 752 864 688 864
WIRE 1168 896 1104 896
WIRE 848 1024 848 1008
WIRE 912 1024 912 1008
FLAG -1520 608 0
FLAG -1520 400 VCC
FLAG -1840 -832 0
FLAG -944 32 0
FLAG -720 -16 0
FLAG -1680 -48 TX_IN+
FLAG -1680 -128 TX_IN-
FLAG -1536 208 0
FLAG -1424 208 0
FLAG -1456 -224 0
FLAG 432 32 0
FLAG 208 -16 0
FLAG 1136 416 0
FLAG 1248 416 0
FLAG 512 -1056 0
FLAG -16 -672 0
FLAG -176 -672 0
FLAG 384 -928 VBRDG
FLAG -1456 -416 +5V
FLAG 944 -336 +5V
FLAG 512 -1328 VHIGH
FLAG -720 -352 VBRDG
FLAG 208 -352 VBRDG
FLAG -1168 608 0
FLAG -1120 608 0
FLAG -976 416 VREF
FLAG 912 1024 0
FLAG 912 704 VCC
FLAG 848 1024 VREF
FLAG 1280 848 OUT_CURR_SENSE
SYMBOL voltage -1520 448 M0
WINDOW 123 0 0 Left 0
WINDOW 39 0 0 Left 0
SYMATTR InstName V3
SYMATTR Value 3.3
SYMBOL voltage -1840 -992 R0
WINDOW 123 0 0 Left 0
WINDOW 39 0 0 Left 0
SYMATTR InstName V4
SYMATTR Value PULSE(10 40 1.6m 1u 1u 50u)
SYMBOL nmos -768 -288 R0
SYMATTR InstName Q9
SYMATTR Value IRF7468
SYMBOL nmos -768 -128 R0
SYMATTR InstName Q10
SYMATTR Value IRF7468
SYMBOL cap -816 -352 R90
WINDOW 0 0 32 VBottom 2
WINDOW 3 32 32 VTop 2
SYMATTR InstName C2
SYMATTR Value .1µ
SYMBOL schottky -1056 -320 R270
WINDOW 0 32 32 VTop 2
WINDOW 3 0 32 VBottom 2
SYMATTR InstName D2
SYMATTR Value 1N5819
SYMATTR Description Diode
SYMATTR Type diode
SYMBOL voltage -1536 48 M0
WINDOW 123 0 0 Left 0
WINDOW 39 0 0 Left 0
SYMATTR InstName V6
SYMATTR Value PULSE(0 5 1500u 10n 10n 1.25u 2.5u {PWM_CYCLES})
SYMBOL voltage -1424 48 R0
WINDOW 123 0 0 Left 0
WINDOW 39 0 0 Left 0
SYMATTR InstName V7
SYMATTR Value PULSE(0 5 1501.25u 10n 10n 1.25u 2.5u {PWM_CYCLES})
SYMBOL voltage -1456 -336 R0
WINDOW 123 0 0 Left 0
WINDOW 39 0 0 Left 0
SYMATTR InstName V1
SYMATTR Value 5
SYMBOL PowerProducts\\LTC4444-5 -944 -128 R0
SYMATTR InstName U1
SYMBOL nmos 256 -288 M0
SYMATTR InstName Q1
SYMATTR Value IRF7468
SYMBOL nmos 256 -128 M0
SYMATTR InstName Q2
SYMATTR Value IRF7468
SYMBOL cap 304 -352 M90
WINDOW 0 0 32 VBottom 2
WINDOW 3 32 32 VTop 2
SYMATTR InstName C1
SYMATTR Value .1µ
SYMBOL schottky 544 -320 M270
WINDOW 0 32 32 VTop 2
WINDOW 3 0 32 VBottom 2
SYMATTR InstName D1
SYMATTR Value 1N5819
SYMATTR Description Diode
SYMATTR Type diode
SYMBOL PowerProducts\\LTC4444-5 432 -128 M0
SYMATTR InstName U2
SYMBOL voltage 1248 256 R0
WINDOW 123 0 0 Left 0
WINDOW 39 0 0 Left 0
SYMATTR InstName V5
SYMATTR Value PULSE(0 5 1501.25u 10n 10n 1.25u 2.5u {PWM_CYCLES-1})
SYMBOL voltage 1136 256 M0
WINDOW 123 0 0 Left 0
WINDOW 39 0 0 Left 0
SYMATTR InstName V8
SYMATTR Value PULSE(0 5 1500.0u 10n 10n 1.25u 2.5u {PWM_CYCLES})
SYMBOL cap -416 48 R90
WINDOW 0 0 32 VBottom 2
WINDOW 3 32 32 VTop 2
SYMATTR InstName C3
SYMATTR Value 0.1µF
SYMBOL res -304 -192 R90
WINDOW 0 0 56 VBottom 2
WINDOW 3 32 56 VTop 2
SYMATTR InstName R1
SYMATTR Value 100k
SYMBOL npn -80 -1088 R0
SYMATTR InstName Q3
SYMATTR Value 2N5550
SYMBOL voltage 512 -1232 R0
WINDOW 123 0 0 Left 0
WINDOW 39 0 0 Left 0
SYMATTR InstName V9
SYMATTR Value 45
SYMBOL pnp -80 -752 M180
SYMATTR InstName Q4
SYMATTR Value 2N5401
SYMBOL schottky -160 -1008 M0
SYMATTR InstName D3
SYMATTR Value 1N5819
SYMATTR Description Diode
SYMATTR Type diode
SYMBOL schottky -160 -896 M0
SYMATTR InstName D4
SYMATTR Value 1N5819
SYMATTR Description Diode
SYMATTR Type diode
SYMBOL res -192 -800 R0
SYMATTR InstName R2
SYMATTR Value 10k
SYMBOL res -192 -1200 R0
SYMATTR InstName R3
SYMATTR Value 10k
SYMBOL res 240 -944 R90
WINDOW 0 0 56 VBottom 2
WINDOW 3 32 56 VTop 2
SYMATTR InstName R4
SYMATTR Value 10m
SYMBOL res -256 48 R90
WINDOW 0 0 56 VBottom 2
WINDOW 3 32 56 VTop 2
SYMATTR InstName R5
SYMATTR Value 100
SYMBOL res 0 -192 R90
WINDOW 0 0 56 VBottom 2
WINDOW 3 32 56 VTop 2
SYMATTR InstName R6
SYMATTR Value 1m
SYMBOL Opamps\\LT1990 928 848 R0
SYMATTR InstName U3
SYMBOL e -1120 464 R0
SYMATTR InstName E1
SYMATTR Value 0.5
TEXT -1536 680 Left 2 !.tran 0 3m 0
TEXT -1536 712 Left 2 !.model SW SW(Ron=0.1 Roff=100Meg Vt=0.5 Vh=-0.1)
TEXT -1544 776 Left 2 !.param PWM_CYCLES 150
