Version 4
SHEET 1 1404 1060
WIRE 288 -480 288 -512
WIRE 288 -352 288 -400
WIRE -704 -48 -880 -48
WIRE -1008 -16 -1008 -64
WIRE 464 64 464 -160
WIRE -800 80 -800 64
WIRE -880 96 -880 -48
WIRE -816 96 -880 96
WIRE -704 112 -704 -48
WIRE -704 112 -752 112
WIRE -432 112 -704 112
WIRE -288 112 -352 112
WIRE 0 112 -208 112
WIRE 144 112 0 112
WIRE 400 112 144 112
WIRE -1008 128 -1008 64
WIRE -816 128 -1008 128
WIRE -800 160 -800 144
WIRE 144 160 144 112
WIRE -1008 176 -1008 128
WIRE 464 224 464 160
WIRE 608 224 464 224
WIRE 848 224 672 224
WIRE 848 240 848 224
WIRE 144 256 144 224
WIRE 464 256 464 224
WIRE 464 256 144 256
WIRE -1008 304 -1008 240
WIRE 0 320 0 112
WIRE 144 336 144 256
WIRE 848 336 848 320
WIRE 0 448 0 400
WIRE 144 464 144 400
WIRE 240 688 64 688
WIRE -64 720 -64 672
WIRE 464 800 464 256
WIRE 144 816 144 800
WIRE 64 832 64 688
WIRE 128 832 64 832
WIRE 240 848 240 688
WIRE 240 848 192 848
WIRE 304 848 240 848
WIRE 400 848 384 848
WIRE -64 864 -64 800
WIRE 128 864 -64 864
WIRE 144 896 144 880
WIRE -64 912 -64 864
WIRE 464 928 464 896
WIRE -64 1040 -64 976
WIRE 464 1040 464 1008
FLAG 464 -160 VCC
FLAG 288 -352 0
FLAG 288 -512 VCC
FLAG 144 464 0
FLAG 0 448 0
FLAG 848 336 0
FLAG 464 1040 0
FLAG 144 896 0
FLAG 144 800 VCC
FLAG -64 1040 0
FLAG -64 672 VCC
FLAG -800 160 0
FLAG -800 64 VCC
FLAG -1008 304 0
FLAG -1008 -64 VCC
SYMBOL npn 400 64 R0
SYMATTR InstName Q1
SYMBOL voltage 288 -496 R0
WINDOW 123 0 0 Left 0
WINDOW 39 0 0 Left 0
SYMATTR InstName V1
SYMATTR Value 3.3
SYMBOL ind -304 128 R270
WINDOW 0 32 56 VTop 2
WINDOW 3 5 56 VBottom 2
SYMATTR InstName L1
SYMATTR Value 100n
SYMBOL cap 160 160 M0
SYMATTR InstName C1
SYMATTR Value 300p
SYMBOL cap 160 336 M0
SYMATTR InstName C2
SYMATTR Value 20p
SYMBOL current 0 400 R180
WINDOW 0 24 80 Left 2
WINDOW 3 24 0 Left 2
WINDOW 123 0 0 Left 0
WINDOW 39 0 0 Left 0
SYMATTR InstName I1
SYMATTR Value PULSE(0 100m 10u 100p 100p 1n)
SYMBOL cap 672 208 R90
WINDOW 0 0 32 VBottom 2
WINDOW 3 32 32 VTop 2
SYMATTR InstName C3
SYMATTR Value 0.01µF
SYMBOL res 832 224 R0
SYMATTR InstName R4
SYMATTR Value 49.9
SYMBOL npn 400 800 R0
SYMATTR InstName Q2
SYMBOL res 448 912 R0
SYMATTR InstName R1
SYMATTR Value 24.99
SYMBOL Opamps\\LTC6252 160 848 R0
SYMATTR InstName U1
SYMBOL res 288 864 R270
WINDOW 0 32 56 VTop 2
WINDOW 3 0 56 VBottom 2
SYMATTR InstName R2
SYMATTR Value 10.0
SYMBOL res -80 704 R0
SYMATTR InstName R3
SYMATTR Value 1k
SYMBOL References\\LT1004-1.2 -64 944 R0
SYMATTR InstName U2
SYMBOL Opamps\\LTC6252 -784 112 R0
SYMATTR InstName U3
SYMBOL res -1024 -32 R0
SYMATTR InstName R6
SYMATTR Value 1k
SYMBOL References\\LT1004-2.5 -1008 208 R0
SYMATTR InstName U4
SYMBOL res -448 128 R270
WINDOW 0 32 56 VTop 2
WINDOW 3 0 56 VBottom 2
SYMATTR InstName R5
SYMATTR Value 10
TEXT -712 -280 Left 2 !.tran 0 100u 0
