Version 4
SHEET 1 2368 916
WIRE 400 -656 272 -656
WIRE 272 -640 272 -656
WIRE 224 -624 0 -624
WIRE 272 -528 272 -560
WIRE 1136 -528 1040 -528
WIRE 1296 -528 1184 -528
WIRE 1360 -528 1296 -528
WIRE 704 -480 -96 -480
WIRE 1040 -480 1040 -528
WIRE 1184 -464 1184 -528
WIRE 1296 -464 1296 -528
WIRE 1136 -448 1136 -528
WIRE 1040 -352 1040 -400
WIRE 1136 -352 1136 -400
WIRE 1184 -352 1184 -384
WIRE 1296 -352 1296 -400
WIRE 0 -336 0 -624
WIRE 80 -336 0 -336
WIRE 224 -336 224 -576
WIRE 224 -336 176 -336
WIRE 272 -336 224 -336
WIRE 160 -240 160 -288
WIRE -992 -160 -1440 -160
WIRE -384 -160 -912 -160
WIRE -96 -160 -96 -480
WIRE -96 -160 -384 -160
WIRE 0 -160 0 -336
WIRE 0 -160 -96 -160
WIRE 272 -160 272 -336
WIRE 304 -160 272 -160
WIRE 400 -160 304 -160
WIRE 576 -160 480 -160
WIRE 768 -160 576 -160
WIRE 864 -160 768 -160
WIRE 1040 -160 944 -160
WIRE 1440 -160 1040 -160
WIRE 1776 -160 1440 -160
WIRE 1840 -160 1776 -160
WIRE 160 -144 160 -240
WIRE 240 -144 240 -240
WIRE 240 -144 224 -144
WIRE 1440 -144 1440 -160
WIRE 1776 -144 1776 -160
WIRE 1040 -128 1040 -160
WIRE -1440 -112 -1440 -160
WIRE 304 -112 304 -160
WIRE 416 -112 304 -112
WIRE 576 -112 576 -160
WIRE 576 -112 480 -112
WIRE 704 -96 704 -480
WIRE 80 -80 64 -80
WIRE 160 -80 144 -80
WIRE 240 -80 240 -144
WIRE 240 -80 160 -80
WIRE 416 -80 416 -112
WIRE 416 -80 288 -80
WIRE 1840 -64 1840 -160
WIRE 1440 -48 1440 -80
WIRE 1776 -48 1776 -64
WIRE 480 -32 480 -112
WIRE 480 -32 416 -32
WIRE -96 -16 -96 -160
WIRE 32 -16 -96 -16
WIRE 1040 16 1040 -48
WIRE -1440 32 -1440 -32
WIRE 32 48 32 -16
WIRE 160 48 160 -80
WIRE 288 48 288 -80
WIRE 416 48 416 -32
WIRE 704 48 704 -16
WIRE -416 112 -512 112
WIRE -256 112 -336 112
WIRE -208 112 -256 112
WIRE -32 112 -208 112
WIRE 544 112 480 112
WIRE 544 128 544 112
WIRE 1840 144 1840 16
WIRE -256 160 -256 112
WIRE -512 176 -512 112
WIRE -96 176 -96 -16
WIRE -32 176 -96 176
WIRE 704 176 704 112
WIRE 704 176 480 176
WIRE 1040 192 1040 80
WIRE 1920 224 1888 224
WIRE 2064 224 2000 224
WIRE 2064 272 2064 224
WIRE -256 304 -256 240
WIRE 128 320 128 304
WIRE 320 320 320 304
WIRE 864 320 864 -160
WIRE 944 320 944 -160
WIRE -512 368 -512 256
WIRE 320 400 320 384
WIRE 1840 400 1840 240
WIRE 2064 400 2064 352
WIRE 864 512 864 400
WIRE 864 512 816 512
WIRE 944 512 944 400
WIRE 976 512 944 512
WIRE -512 544 -512 448
WIRE 816 544 816 512
WIRE 976 544 976 512
WIRE 768 672 528 672
WIRE 1104 672 1024 672
WIRE 1360 672 1104 672
WIRE 1536 672 1360 672
WIRE 1104 768 1104 672
WIRE 1360 768 1360 672
WIRE 896 896 896 800
WIRE 1104 896 1104 848
WIRE 1360 896 1360 848
FLAG 1440 -48 0
FLAG 1776 -48 0
FLAG 320 400 0
FLAG 128 320 0
FLAG 64 -80 0
FLAG -1440 32 0
FLAG 544 128 0
FLAG -256 304 0
FLAG -512 544 0
FLAG 768 -160 OUT
FLAG -208 112 CMD
FLAG 1840 400 0
FLAG 2064 400 0
FLAG 1136 -352 0
FLAG 1040 -352 0
FLAG 1296 -352 0
FLAG 1184 -352 0
FLAG 272 -528 0
FLAG 400 -656 VDS
FLAG 1360 -528 FET_ENERGY_DISS
FLAG 1040 192 0
FLAG -384 -160 IN
FLAG 528 672 IN
FLAG 896 896 0
FLAG 1104 896 0
FLAG 1536 672 OUT_CS
FLAG 1360 896 0
SYMBOL res 384 -144 R270
WINDOW 0 32 56 VTop 2
WINDOW 3 0 56 VBottom 2
SYMATTR InstName RSNS
SYMATTR Value {0.05/{ILIM}}
SYMBOL cap 144 -96 R90
WINDOW 0 0 32 VBottom 2
WINDOW 3 32 32 VTop 2
SYMATTR InstName CG
SYMATTR Value {CG}
SYMBOL cap 304 320 R0
SYMATTR InstName CTMR
SYMATTR Value {Ctmr}
SYMBOL cap 1456 -144 M0
SYMATTR InstName C3
SYMATTR Value {Cload_Max}
SYMBOL res 1792 -160 M0
SYMATTR InstName Rload
SYMATTR Value {{VBUS}/(0.5*{ILIM})}
SYMBOL LT4363-1 208 176 R0
SYMATTR InstName U1
SYMBOL voltage -1440 -128 R0
WINDOW 123 24 138 Left 2
WINDOW 39 24 117 Left 2
SYMATTR InstName V2
SYMATTR Value PULSE(0 {VBUS} 100m 1u 1u 100)
SYMBOL res -272 144 R0
SYMATTR InstName R4
SYMATTR Value 10k
SYMBOL res -320 96 R90
WINDOW 0 0 56 VBottom 2
WINDOW 3 32 56 VTop 2
SYMATTR InstName R5
SYMATTR Value 50
SYMBOL voltage -512 160 M0
WINDOW 123 24 138 Left 2
WINDOW 39 24 117 Left 2
SYMATTR InstName VCMD_INIT
SYMATTR Value PULSE(0 5 500m 1u 1u 10)
SYMBOL res 144 -224 R270
WINDOW 0 32 56 VTop 2
WINDOW 3 0 56 VBottom 2
SYMATTR InstName R6
SYMATTR Value 10
SYMBOL nmos 80 -288 R270
WINDOW 0 57 42 VTop 2
WINDOW 3 -14 72 VLeft 2
SYMATTR InstName Q2
SYMATTR Value AONS66919
SYMBOL nmos 1888 144 M0
SYMATTR InstName M1
SYMATTR Value AOTL66608
SYMBOL voltage 2064 256 R0
WINDOW 123 24 138 Left 2
WINDOW 39 24 117 Left 2
SYMATTR InstName V3
SYMATTR Value PULSE(0 15 10 1u 1u 1)
SYMBOL res 1824 -80 R0
SYMATTR InstName Rshort
SYMATTR Value {{VBUS}/(1.1*{ILIM})}
SYMBOL voltage -512 352 M0
WINDOW 123 24 138 Left 2
WINDOW 39 24 117 Left 2
SYMATTR InstName VCMD_RST
SYMATTR Value PULSE(0 5 20 1u 1u 10)
SYMBOL diode 160 -128 R270
WINDOW 0 32 32 VTop 2
WINDOW 3 0 32 VBottom 2
SYMATTR InstName D2
SYMATTR Value 1N4148
SYMBOL res 688 -112 R0
SYMATTR InstName R1
SYMATTR Value 30k
SYMBOL LED 688 48 R0
SYMATTR InstName D1
SYMATTR Value NSCW100
SYMBOL res 2016 208 R90
WINDOW 0 0 56 VBottom 2
WINDOW 3 32 56 VTop 2
SYMATTR InstName R7
SYMATTR Value 10
SYMBOL bv 1040 -496 M0
SYMATTR InstName B1
SYMATTR Value V={V(VDS)*I(RSNS)}
SYMBOL g 1184 -480 R0
SYMATTR InstName G1
SYMATTR Value 1
SYMBOL e 272 -656 R0
SYMATTR InstName E1
SYMATTR Value 1
SYMBOL cap 1280 -464 R0
SYMATTR InstName C1
SYMATTR Value 1
SYMBOL res 1024 -144 R0
SYMATTR InstName R2
SYMATTR Value 30k
SYMBOL LED 1024 16 R0
SYMATTR InstName D3
SYMATTR Value NSCW100
SYMBOL res -896 -176 R90
WINDOW 0 0 56 VBottom 2
WINDOW 3 32 56 VTop 2
SYMATTR InstName R3
SYMATTR Value 10m
SYMBOL res 848 -144 R270
WINDOW 0 32 56 VTop 2
WINDOW 3 0 56 VBottom 2
SYMATTR InstName R8
SYMATTR Value 10m
SYMBOL res 928 304 R0
SYMATTR InstName R9
SYMATTR Value 1k
SYMBOL res 848 304 R0
SYMATTR InstName R10
SYMATTR Value 1k
SYMBOL PowerProducts\\LT6105 896 672 R0
SYMATTR InstName U2
SYMBOL res 1088 752 R0
SYMATTR InstName R11
SYMATTR Value 10k
SYMBOL res 1344 752 R0
SYMATTR InstName R12
SYMATTR Value 1Meg
TEXT 496 352 Left 2 !.tran 30 startup
TEXT -1784 128 Left 2 ;.param ILIM=18
TEXT -1784 88 Left 2 ;.param VBUS=32
TEXT -1784 192 Left 2 !.step param ILIM list 3 6 9 12 18 24 30
TEXT -1784 224 Left 2 !.step param VBUS list 24 28 32
TEXT -1784 384 Left 2 !.param Cload_Max 2.5m\n.param Igate_up 45u\n.param Iinrush_Max 2.75\n.param CG {({Cload_Max}*{Igate_up})/({Iinrush_Max})}
TEXT -1792 544 Left 2 !.param Itmr_Max 10u\n.param tfault 1.5m\n.param Ctmr {({Itmr_Max}*{tfault})/(1.4-0.5)}
