Version 4
SHEET 1 6324 2276
WIRE 2720 -992 2640 -992
WIRE 2976 -992 2800 -992
WIRE -32 -960 -224 -960
WIRE -448 -928 -448 -960
WIRE -224 -912 -224 -960
WIRE -448 -800 -448 -848
WIRE -224 -800 -224 -832
WIRE 2736 -800 2736 -816
WIRE 2496 -752 2400 -752
WIRE 2640 -752 2640 -992
WIRE 2640 -752 2576 -752
WIRE 2704 -752 2640 -752
WIRE 2976 -720 2976 -992
WIRE 2976 -720 2848 -720
WIRE 3360 -720 2976 -720
WIRE 2704 -688 2640 -688
WIRE 2736 -624 2736 -640
WIRE 2272 -608 2272 -704
WIRE 1120 -592 1120 -672
WIRE 1120 -464 1120 -512
WIRE 1360 -464 1120 -464
WIRE 1120 -416 1120 -464
WIRE 2272 -416 2272 -528
WIRE 2640 -416 2640 -688
WIRE 2640 -416 2272 -416
WIRE 2272 -320 2272 -416
WIRE 1120 -272 1120 -336
WIRE -160 -208 -208 -208
WIRE 16 -208 -96 -208
WIRE 192 -208 80 -208
WIRE 336 -208 256 -208
WIRE 2272 -176 2272 -256
WIRE 2720 -160 2640 -160
WIRE 2976 -160 2800 -160
WIRE -320 -128 -432 -128
WIRE -256 -128 -320 -128
WIRE -208 -128 -208 -208
WIRE -208 -128 -256 -128
WIRE 1120 -80 1120 -160
WIRE -208 -48 -208 -128
WIRE -96 -48 -208 -48
WIRE 96 -48 -32 -48
WIRE -320 -32 -320 -128
WIRE -432 -16 -432 -128
WIRE 2736 32 2736 16
WIRE 1120 48 1120 0
WIRE 1360 48 1120 48
WIRE -64 80 -64 64
WIRE 2496 80 2400 80
WIRE 2640 80 2640 -160
WIRE 2640 80 2576 80
WIRE 2704 80 2640 80
WIRE -208 96 -208 -48
WIRE -96 96 -208 96
WIRE 1120 96 1120 48
WIRE 96 112 96 -48
WIRE 96 112 -32 112
WIRE 160 112 96 112
WIRE 336 112 336 -208
WIRE 336 112 224 112
WIRE 464 112 336 112
WIRE 2976 112 2976 -160
WIRE 2976 112 2848 112
WIRE 3360 112 2976 112
WIRE -96 128 -208 128
WIRE 2704 144 2640 144
WIRE -64 160 -64 144
WIRE -432 176 -432 64
WIRE -320 176 -320 48
WIRE -208 176 -208 128
WIRE 2736 208 2736 192
WIRE 2272 224 2272 128
WIRE 1120 240 1120 176
WIRE 2272 416 2272 304
WIRE 2640 416 2640 144
WIRE 2640 416 2272 416
WIRE 2272 512 2272 416
WIRE 2272 656 2272 576
FLAG -64 160 0
FLAG -64 64 VCC
FLAG -208 176 0
FLAG -448 -960 VCC
FLAG -448 -800 0
FLAG -320 176 0
FLAG 464 112 OUT_LOG_AMP
FLAG -256 -128 VN
FLAG -224 -800 0
FLAG -432 176 0
FLAG 1120 -272 0
FLAG 1360 -464 VSET_2X_SUN_TRIGGER_FIXED
FLAG 1120 -672 VCC
FLAG 1120 240 0
FLAG 1360 48 VSET_1_20TH_SUN_TRIGGER_FIXED
FLAG 1120 -160 VCC
FLAG 2736 -624 0
FLAG 2736 -816 VCC
FLAG 2400 -752 0
FLAG 2272 -176 0
FLAG 2272 -704 VCC
FLAG 2736 208 0
FLAG 2736 16 VCC
FLAG 2400 80 0
FLAG 2272 656 0
FLAG 2272 128 VCC
SYMBOL Opamps\\opamp2 -64 48 R0
SYMATTR InstName U1
SYMATTR Value MCP6471
SYMBOL diode 80 -192 M270
WINDOW 0 32 32 VTop 2
WINDOW 3 0 32 VBottom 2
SYMATTR InstName D1
SYMATTR Value MMDL914T1
SYMBOL diode 256 -192 M270
WINDOW 0 32 32 VTop 2
WINDOW 3 0 32 VBottom 2
SYMATTR InstName D2
SYMATTR Value MMDL914T1
SYMBOL diode -96 -192 M270
WINDOW 0 32 32 VTop 2
WINDOW 3 0 32 VBottom 2
SYMATTR InstName D3
SYMATTR Value MMDL914T1
SYMBOL cap -32 -64 R90
WINDOW 0 0 32 VBottom 2
WINDOW 3 32 32 VTop 2
SYMATTR InstName C1
SYMATTR Value 15pF
SYMBOL schottky 160 96 M90
WINDOW 0 0 32 VBottom 2
WINDOW 3 32 32 VTop 2
SYMATTR InstName D4
SYMATTR Value BAT54
SYMATTR Description Diode
SYMATTR Type diode
SYMBOL voltage -448 -944 M0
WINDOW 123 0 0 Left 0
WINDOW 39 0 0 Left 0
SYMATTR InstName V1
SYMATTR Value 3.3
SYMBOL res -336 -48 R0
SYMATTR InstName R1
SYMATTR Value 100Meg
SYMBOL bv -224 -928 R0
SYMATTR InstName B1
SYMATTR Value V={V(OUT_LOG_AMP)/V(VN)}
SYMBOL current -432 -16 M0
WINDOW 123 24 108 Left 2
WINDOW 39 0 0 Left 0
SYMATTR Value2 AC 1
SYMATTR InstName Iin
SYMATTR Value {IBIAS}
SYMBOL res 1104 -608 R0
SYMATTR InstName R3
SYMATTR Value 100k
SYMBOL res 1104 -432 R0
SYMATTR InstName R4
SYMATTR Value 44.8k
SYMBOL res 1104 -96 R0
SYMATTR InstName R8
SYMATTR Value 200k
SYMBOL res 1104 80 R0
SYMATTR InstName R9
SYMATTR Value 49.9k
SYMBOL Opamps\\LTC6261 2736 -720 R0
SYMATTR InstName U5
SYMBOL res 2816 -1008 R90
WINDOW 0 0 56 VBottom 2
WINDOW 3 32 56 VTop 2
SYMATTR InstName R7
SYMATTR Value 20k
SYMBOL res 2592 -768 R90
WINDOW 0 0 56 VBottom 2
WINDOW 3 32 56 VTop 2
SYMATTR InstName R10
SYMATTR Value 10k
SYMBOL res 2256 -624 R0
SYMATTR InstName R11
SYMATTR Value 15k
SYMBOL diode 2288 -320 M0
SYMATTR InstName D11
SYMATTR Value MMDL914T1
SYMBOL Opamps\\LTC6261 2736 112 R0
SYMATTR InstName U6
SYMBOL res 2816 -176 R90
WINDOW 0 0 56 VBottom 2
WINDOW 3 32 56 VTop 2
SYMATTR InstName R12
SYMATTR Value 20k
SYMBOL res 2592 64 R90
WINDOW 0 0 56 VBottom 2
WINDOW 3 32 56 VTop 2
SYMATTR InstName R13
SYMATTR Value 10k
SYMBOL res 2256 208 R0
SYMATTR InstName R14
SYMATTR Value 600k
SYMBOL diode 2288 512 M0
SYMATTR InstName D12
SYMATTR Value MMDL914T1
TEXT -32 -680 Left 2 !.lib MCP6471.lib
TEXT -32 -640 Left 2 !.lib MMDL914T1.LIB
TEXT -800 -688 Left 2 !.dc dec Iin 10n 10m 1k
TEXT -32 -584 Left 2 !.step temp list -40 25 85
TEXT -800 -656 Left 2 ;.step param IBIAS list 1n 10n 100n 1u 10u 100u
TEXT -800 -608 Left 2 !;ac dec 1k 1 10Meg
TEXT -800 -552 Left 2 !.param IBIAS 0
