**************************************
*      Model Generated by MODPEX     *
*Copyright(c) Symmetry Design Systems*
*         All Rights Reserved        *
*    UNPUBLISHED LICENSED SOFTWARE   *
*   Contains Proprietary Information *
*      Which is The Property of      *
*     SYMMETRY OR ITS LICENSORS      *
*Commercial Use or Resale Restricted *
*   by Symmetry License Agreement    *
**************************************
* Model generated on Sep 18, 07
* MODEL FORMAT: PSpice
.MODEL MMDL914T1 d
+IS=4.54474e-09 RS=1.1864 N=1.87118 EG=1.16357
+XTI=0.5 BV=1000 IBV=0.0001 CJO=6.06933e-13
+VJ=0.597531 M=0.0514366 FC=0.5 TT=5.1937e-09
+KF=0 AF=1

