Version 4
SHEET 1 1848 836
WIRE -592 64 -656 64
WIRE -400 64 -512 64
WIRE -144 64 -208 64
WIRE 32 64 -64 64
WIRE 240 64 176 64
WIRE 464 64 320 64
WIRE -400 96 -400 64
WIRE 32 96 32 64
WIRE 464 96 464 64
WIRE -400 160 -400 96
WIRE 32 160 32 96
WIRE 176 160 176 64
WIRE 464 160 464 96
WIRE -656 176 -656 64
WIRE -208 176 -208 64
WIRE -656 336 -656 256
WIRE -400 336 -400 256
WIRE -400 336 -656 336
WIRE -208 336 -208 256
WIRE 32 336 32 240
WIRE 32 336 -208 336
WIRE 176 336 176 240
WIRE 464 336 464 256
WIRE 464 336 176 336
WIRE -400 352 -400 336
WIRE 32 352 32 336
WIRE 464 352 464 336
FLAG 32 352 0
FLAG 32 96 TFPT
FLAG 464 352 0
FLAG 464 96 PTS
FLAG -400 352 0
FLAG -400 96 NTC
SYMBOL res -48 80 M270
WINDOW 0 32 56 VTop 2
WINDOW 3 0 56 VBottom 2
SYMATTR InstName R2
SYMATTR Value 8k
SYMBOL voltage -208 160 R0
WINDOW 123 0 0 Left 2
WINDOW 39 0 0 Left 2
SYMATTR InstName V1
SYMATTR Value 0.2
SYMBOL res 336 80 M270
WINDOW 0 32 56 VTop 2
WINDOW 3 0 56 VBottom 2
SYMATTR InstName R1
SYMATTR Value 1k
SYMBOL voltage 176 144 R0
WINDOW 123 0 0 Left 2
WINDOW 39 0 0 Left 2
SYMATTR InstName V2
SYMATTR Value 0.2
SYMBOL res -496 80 M270
WINDOW 0 32 56 VTop 2
WINDOW 3 0 56 VBottom 2
SYMATTR InstName R3
SYMATTR Value 10k
SYMBOL voltage -656 160 R0
WINDOW 123 0 0 Left 2
WINDOW 39 0 0 Left 2
SYMATTR InstName V3
SYMATTR Value 0.2
SYMBOL PTS12060__1K00 464 336 R90
SYMATTR InstName U3
SYMATTR SpiceLine TOL0=0.6 TOLS=0.01
SYMBOL TFPT1206L1002 32 208 R90
SYMATTR SpiceLine TOL25=1 TOLslope=1
SYMATTR InstName U1
SYMBOL NTCS0402E3103_L1T -400 208 R90
SYMATTR InstName U2
SYMATTR SpiceLine TR=5 TB=3
TEXT 72 368 Left 2 !.dc TEMP -55 150 1\n.param run=1\n.step param run 1 100 1\n.meas Rt1 find -V(TFPT)/I(V1) at=-55\n.meas Rt2 find -V(TFPT)/I(V1) at=25\n.meas Rt3 find -V(TFPT)/I(V1) at=85\n.meas Rt4 find -V(TFPT)/I(V1) at=150\n.meas Rn1 find -V(NTC)/I(V3) at=-55\n.meas Rn2 find -V(NTC)/I(V3) at=25\n.meas Rn3 find -V(NTC)/I(V3) at=85\n.meas Rn4 find -V(NTC)/I(V3) at=150\n.meas Rp1 find -V(PTS)/I(V2) at=-55\n.meas Rp2 find -V(PTS)/I(V2) at=0\n.meas Rp3 find -V(PTS)/I(V2) at=85\n.meas Rp4 find -V(PTS)/I(V2) at=150
TEXT -688 448 Left 2 ;This simulation is computing and displaying the voltages \nacross an NTC Thermistor, across a TFPT RTD and also\na PTS RTD in a voltage divider (Vcc= 0.2 V in order to \navoid self heating) , for temperatures swept between -55°C\nand 150°C.  100 runs are performed,the tolerances being \nmodelled according to Monte Carlo distribution.\nIn the MEAS section , resistances are computed at different\ntemperatures (-55°C/150°C) .When the simulation is completed ,\nopen "view" then "Spice Error Log" for display.
