Version 4
SHEET 1 928 680
WIRE -384 -96 -656 -96
WIRE -256 -96 -384 -96
WIRE -80 -96 -208 -96
WIRE 128 -96 0 -96
WIRE 272 -96 208 -96
WIRE 368 -96 272 -96
WIRE 544 -96 448 -96
WIRE 608 -96 544 -96
WIRE 848 -96 688 -96
WIRE -208 -16 -208 -96
WIRE 272 -16 272 -96
WIRE 544 -16 544 -96
WIRE -656 0 -656 -96
WIRE -384 0 -384 -96
WIRE -256 0 -256 -96
WIRE 848 0 848 -96
WIRE -656 176 -656 80
WIRE -384 176 -384 80
WIRE -256 176 -256 48
WIRE -208 176 -208 64
WIRE 272 176 272 48
WIRE 544 176 544 48
WIRE 848 176 848 80
FLAG 848 176 0
FLAG -656 176 0
FLAG 272 176 0
FLAG 544 176 0
FLAG -208 176 0
FLAG -256 176 0
FLAG -384 176 0
SYMBOL voltage -656 -16 M0
WINDOW 123 24 124 Left 2
WINDOW 39 24 152 Left 2
SYMATTR Value2 AC 1
SYMATTR SpiceLine Rser={Z0}
SYMATTR InstName Vs
SYMATTR Value PWL file=PBRS_Sequence.txt
SYMBOL ind 112 -80 R270
WINDOW 0 32 56 VTop 2
WINDOW 3 5 56 VBottom 2
SYMATTR InstName L1
SYMATTR Value {L1}
SYMBOL cap 256 -16 R0
SYMATTR InstName C1
SYMATTR Value {C1}
SYMBOL ind 352 -80 R270
WINDOW 0 32 56 VTop 2
WINDOW 3 5 56 VBottom 2
SYMATTR InstName L2
SYMATTR Value {L2}
SYMBOL res 832 -16 R0
SYMATTR InstName RL
SYMATTR Value {Z0}
SYMBOL ind 704 -80 M270
WINDOW 0 32 56 VTop 2
WINDOW 3 5 56 VBottom 2
SYMATTR InstName L3
SYMATTR Value {L1}
SYMBOL cap 560 -16 M0
SYMATTR InstName C2
SYMATTR Value {C1}
SYMBOL e -208 -32 R0
SYMATTR InstName E1
SYMATTR Value 2.0
SYMBOL res 16 -112 R90
WINDOW 0 0 56 VBottom 2
WINDOW 3 32 56 VTop 2
SYMATTR InstName RG
SYMATTR Value {Z0}
SYMBOL res -368 96 R180
WINDOW 0 36 76 Left 2
WINDOW 3 36 40 Left 2
SYMATTR InstName RT
SYMATTR Value {Z0}
TEXT -72 -320 Left 2 !.net  I(RL) VS
TEXT -72 -360 Left 2 !.param Z0=50
TEXT -72 -272 Left 2 !;ac dec 1k 1 10G
TEXT -72 -224 Left 2 !.tran 0 100n 0
TEXT 352 -544 Left 2 !.param L1 = 7.14nH\n.param L2 = 10.6nH\n.param C1 = 2.06pF
